/*---------------------------------------------------------------------------*\
| =========                 |                                                 |
| \\      /  F ield         | OpenFOAM: The Open Source CFD Toolbox           |
|  \\    /   O peration     | Version:  2012                                  |
|   \\  /    A nd           | Website:  www.openfoam.com                      |
|    \\/     M anipulation  |                                                 |
\*---------------------------------------------------------------------------*/
Build  : _269d0ffd5c-20210619 OPENFOAM=2012 patch=210618
Arch   : "LSB;label=32;scalar=64"
Exec   : blockMesh
Date   : Jul 16 2022
Time   : 10:02:06
Host   : f485359ed3ce
PID    : 61339
I/O    : uncollated
Case   : /root/pulsed-reactor-optimisation/mesh_generation/coil_basic
nProcs : 1
trapFpe: Floating point exception trapping enabled (FOAM_SIGFPE).
fileModificationChecking : Monitoring run-time modified files using timeStampMaster (fileModificationSkew 5, maxFileModificationPolls 20)
allowSystemOperations : Allowing user-supplied system call operations

// * * * * * * * * * * * * * * * * * * * * * * * * * * * * * * * * * * * * * //
Create time

Creating block mesh from "system/blockMeshDict"
Creating block edges
Creating block faces
Creating topology blocks
Creating topology patches

Creating block mesh topology

Check topology

	Basic statistics
		Number of internal faces : 2049
		Number of boundary faces : 642
		Number of defined boundary faces : 642
		Number of undefined boundary faces : 0
	Checking patch -> block consistency

Creating block offsets
Creating merge list (geometric search)...

Creating polyMesh from blockMesh
Creating patches
Creating cells
Creating points with scale 1
    Block 0 cell size :
        i : 0.07925 .. 0.07925
        j : 0.02475 .. 0.02475
        k : 5 .. 5

    Block 1 cell size :
        i : 0.07925 .. 0.07925
        j : 0.0250052 .. 0.0250052
        k : 5 .. 5

    Block 2 cell size :
        i : 0.07925 .. 0.07925
        j : 0.0252499 .. 0.0252499
        k : 5 .. 5

    Block 3 cell size :
        i : 0.0760862 .. 0.0760862
        j : 0.0249894 .. 0.0249894
        k : 5 .. 5

    Block 4 cell size :
        i : 0.0356347 .. 0.0356347
        j : 0.034504 .. 0.034504
        k : 5 .. 5

    Block 5 cell size :
        i : 0.07925 .. 0.07925
        j : 0.02475 .. 0.02475
        k : 0.386369 .. 0.386369

    Block 6 cell size :
        i : 0.07925 .. 0.07925
        j : 0.0250052 .. 0.0250052
        k : 0.449275 .. 0.449275

    Block 7 cell size :
        i : 0.07925 .. 0.07925
        j : 0.0252499 .. 0.0252499
        k : 0.384377 .. 0.384377

    Block 8 cell size :
        i : 0.0760862 .. 0.0760862
        j : 0.0249894 .. 0.0249894
        k : 0.323793 .. 0.323793

    Block 9 cell size :
        i : 0.0356347 .. 0.0356347
        j : 0.034504 .. 0.034504
        k : 0.386369 .. 0.386369

    Block 10 cell size :
        i : 0.07925 .. 0.07925
        j : 0.02475 .. 0.02475
        k : 0.386369 .. 0.386369

    Block 11 cell size :
        i : 0.07925 .. 0.07925
        j : 0.0250052 .. 0.0250052
        k : 0.449275 .. 0.449275

    Block 12 cell size :
        i : 0.07925 .. 0.07925
        j : 0.0252499 .. 0.0252499
        k : 0.384377 .. 0.384377

    Block 13 cell size :
        i : 0.0760862 .. 0.0760862
        j : 0.0249894 .. 0.0249894
        k : 0.323793 .. 0.323793

    Block 14 cell size :
        i : 0.0356347 .. 0.0356347
        j : 0.034504 .. 0.034504
        k : 0.386369 .. 0.386369

    Block 15 cell size :
        i : 0.07925 .. 0.07925
        j : 0.02475 .. 0.02475
        k : 0.386369 .. 0.386369

    Block 16 cell size :
        i : 0.07925 .. 0.07925
        j : 0.0250052 .. 0.0250052
        k : 0.449275 .. 0.449275

    Block 17 cell size :
        i : 0.07925 .. 0.07925
        j : 0.0252499 .. 0.0252499
        k : 0.384377 .. 0.384377

    Block 18 cell size :
        i : 0.0760862 .. 0.0760862
        j : 0.0249894 .. 0.0249894
        k : 0.323793 .. 0.323793

    Block 19 cell size :
        i : 0.0356347 .. 0.0356347
        j : 0.034504 .. 0.034504
        k : 0.386369 .. 0.386369

    Block 20 cell size :
        i : 0.07925 .. 0.07925
        j : 0.02475 .. 0.02475
        k : 0.386369 .. 0.386369

    Block 21 cell size :
        i : 0.07925 .. 0.07925
        j : 0.0250052 .. 0.0250052
        k : 0.449275 .. 0.449275

    Block 22 cell size :
        i : 0.07925 .. 0.07925
        j : 0.0252499 .. 0.0252499
        k : 0.384377 .. 0.384377

    Block 23 cell size :
        i : 0.0760862 .. 0.0760862
        j : 0.0249894 .. 0.0249894
        k : 0.323793 .. 0.323793

    Block 24 cell size :
        i : 0.0356347 .. 0.0356347
        j : 0.034504 .. 0.034504
        k : 0.386369 .. 0.386369

    Block 25 cell size :
        i : 0.07925 .. 0.07925
        j : 0.02475 .. 0.02475
        k : 0.386369 .. 0.386369

    Block 26 cell size :
        i : 0.07925 .. 0.07925
        j : 0.0250052 .. 0.0250052
        k : 0.449275 .. 0.449275

    Block 27 cell size :
        i : 0.07925 .. 0.07925
        j : 0.0252499 .. 0.0252499
        k : 0.384377 .. 0.384377

    Block 28 cell size :
        i : 0.0760862 .. 0.0760862
        j : 0.0249894 .. 0.0249894
        k : 0.323793 .. 0.323793

    Block 29 cell size :
        i : 0.0356347 .. 0.0356347
        j : 0.034504 .. 0.034504
        k : 0.386369 .. 0.386369

    Block 30 cell size :
        i : 0.07925 .. 0.07925
        j : 0.02475 .. 0.02475
        k : 0.386369 .. 0.386369

    Block 31 cell size :
        i : 0.07925 .. 0.07925
        j : 0.0250052 .. 0.0250052
        k : 0.449275 .. 0.449275

    Block 32 cell size :
        i : 0.07925 .. 0.07925
        j : 0.0252499 .. 0.0252499
        k : 0.384377 .. 0.384377

    Block 33 cell size :
        i : 0.0760862 .. 0.0760862
        j : 0.0249894 .. 0.0249894
        k : 0.323793 .. 0.323793

    Block 34 cell size :
        i : 0.0356347 .. 0.0356347
        j : 0.034504 .. 0.034504
        k : 0.386369 .. 0.386369

    Block 35 cell size :
        i : 0.07925 .. 0.07925
        j : 0.02475 .. 0.02475
        k : 0.386369 .. 0.386369

    Block 36 cell size :
        i : 0.07925 .. 0.07925
        j : 0.0250052 .. 0.0250052
        k : 0.449275 .. 0.449275

    Block 37 cell size :
        i : 0.07925 .. 0.07925
        j : 0.0252499 .. 0.0252499
        k : 0.384377 .. 0.384377

    Block 38 cell size :
        i : 0.0760862 .. 0.0760862
        j : 0.0249894 .. 0.0249894
        k : 0.323793 .. 0.323793

    Block 39 cell size :
        i : 0.0356347 .. 0.0356347
        j : 0.034504 .. 0.034504
        k : 0.386369 .. 0.386369

    Block 40 cell size :
        i : 0.07925 .. 0.07925
        j : 0.02475 .. 0.02475
        k : 0.386369 .. 0.386369

    Block 41 cell size :
        i : 0.07925 .. 0.07925
        j : 0.0250052 .. 0.0250052
        k : 0.449275 .. 0.449275

    Block 42 cell size :
        i : 0.07925 .. 0.07925
        j : 0.0252499 .. 0.0252499
        k : 0.384377 .. 0.384377

    Block 43 cell size :
        i : 0.0760862 .. 0.0760862
        j : 0.0249894 .. 0.0249894
        k : 0.323793 .. 0.323793

    Block 44 cell size :
        i : 0.0356347 .. 0.0356347
        j : 0.034504 .. 0.034504
        k : 0.386369 .. 0.386369

    Block 45 cell size :
        i : 0.07925 .. 0.07925
        j : 0.02475 .. 0.02475
        k : 0.386369 .. 0.386369

    Block 46 cell size :
        i : 0.07925 .. 0.07925
        j : 0.0250052 .. 0.0250052
        k : 0.449275 .. 0.449275

    Block 47 cell size :
        i : 0.07925 .. 0.07925
        j : 0.0252499 .. 0.0252499
        k : 0.384377 .. 0.384377

    Block 48 cell size :
        i : 0.0760862 .. 0.0760862
        j : 0.0249894 .. 0.0249894
        k : 0.323793 .. 0.323793

    Block 49 cell size :
        i : 0.0356347 .. 0.0356347
        j : 0.034504 .. 0.034504
        k : 0.386369 .. 0.386369

    Block 50 cell size :
        i : 0.07925 .. 0.07925
        j : 0.02475 .. 0.02475
        k : 0.386369 .. 0.386369

    Block 51 cell size :
        i : 0.07925 .. 0.07925
        j : 0.0250052 .. 0.0250052
        k : 0.449275 .. 0.449275

    Block 52 cell size :
        i : 0.07925 .. 0.07925
        j : 0.0252499 .. 0.0252499
        k : 0.384377 .. 0.384377

    Block 53 cell size :
        i : 0.0760862 .. 0.0760862
        j : 0.0249894 .. 0.0249894
        k : 0.323793 .. 0.323793

    Block 54 cell size :
        i : 0.0356347 .. 0.0356347
        j : 0.034504 .. 0.034504
        k : 0.386369 .. 0.386369

    Block 55 cell size :
        i : 0.07925 .. 0.07925
        j : 0.02475 .. 0.02475
        k : 0.386369 .. 0.386369

    Block 56 cell size :
        i : 0.07925 .. 0.07925
        j : 0.0250052 .. 0.0250052
        k : 0.449275 .. 0.449275

    Block 57 cell size :
        i : 0.07925 .. 0.07925
        j : 0.0252499 .. 0.0252499
        k : 0.384377 .. 0.384377

    Block 58 cell size :
        i : 0.0760862 .. 0.0760862
        j : 0.0249894 .. 0.0249894
        k : 0.323793 .. 0.323793

    Block 59 cell size :
        i : 0.0356347 .. 0.0356347
        j : 0.034504 .. 0.034504
        k : 0.386369 .. 0.386369

    Block 60 cell size :
        i : 0.07925 .. 0.07925
        j : 0.02475 .. 0.02475
        k : 0.386369 .. 0.386369

    Block 61 cell size :
        i : 0.07925 .. 0.07925
        j : 0.0250052 .. 0.0250052
        k : 0.449275 .. 0.449275

    Block 62 cell size :
        i : 0.07925 .. 0.07925
        j : 0.0252499 .. 0.0252499
        k : 0.384377 .. 0.384377

    Block 63 cell size :
        i : 0.0760862 .. 0.0760862
        j : 0.0249894 .. 0.0249894
        k : 0.323793 .. 0.323793

    Block 64 cell size :
        i : 0.0356347 .. 0.0356347
        j : 0.034504 .. 0.034504
        k : 0.386369 .. 0.386369

    Block 65 cell size :
        i : 0.07925 .. 0.07925
        j : 0.02475 .. 0.02475
        k : 0.386369 .. 0.386369

    Block 66 cell size :
        i : 0.07925 .. 0.07925
        j : 0.0250052 .. 0.0250052
        k : 0.449275 .. 0.449275

    Block 67 cell size :
        i : 0.07925 .. 0.07925
        j : 0.0252499 .. 0.0252499
        k : 0.384377 .. 0.384377

    Block 68 cell size :
        i : 0.0760862 .. 0.0760862
        j : 0.0249894 .. 0.0249894
        k : 0.323793 .. 0.323793

    Block 69 cell size :
        i : 0.0356347 .. 0.0356347
        j : 0.034504 .. 0.034504
        k : 0.386369 .. 0.386369

    Block 70 cell size :
        i : 0.07925 .. 0.07925
        j : 0.02475 .. 0.02475
        k : 0.386369 .. 0.386369

    Block 71 cell size :
        i : 0.07925 .. 0.07925
        j : 0.0250052 .. 0.0250052
        k : 0.449275 .. 0.449275

    Block 72 cell size :
        i : 0.07925 .. 0.07925
        j : 0.0252499 .. 0.0252499
        k : 0.384377 .. 0.384377

    Block 73 cell size :
        i : 0.0760862 .. 0.0760862
        j : 0.0249894 .. 0.0249894
        k : 0.323793 .. 0.323793

    Block 74 cell size :
        i : 0.0356347 .. 0.0356347
        j : 0.034504 .. 0.034504
        k : 0.386369 .. 0.386369

    Block 75 cell size :
        i : 0.07925 .. 0.07925
        j : 0.02475 .. 0.02475
        k : 0.386369 .. 0.386369

    Block 76 cell size :
        i : 0.07925 .. 0.07925
        j : 0.0250052 .. 0.0250052
        k : 0.449275 .. 0.449275

    Block 77 cell size :
        i : 0.07925 .. 0.07925
        j : 0.0252499 .. 0.0252499
        k : 0.384377 .. 0.384377

    Block 78 cell size :
        i : 0.0760862 .. 0.0760862
        j : 0.0249894 .. 0.0249894
        k : 0.323793 .. 0.323793

    Block 79 cell size :
        i : 0.0356347 .. 0.0356347
        j : 0.034504 .. 0.034504
        k : 0.386369 .. 0.386369

    Block 80 cell size :
        i : 0.07925 .. 0.07925
        j : 0.02475 .. 0.02475
        k : 0.386369 .. 0.386369

    Block 81 cell size :
        i : 0.07925 .. 0.07925
        j : 0.0250052 .. 0.0250052
        k : 0.449275 .. 0.449275

    Block 82 cell size :
        i : 0.07925 .. 0.07925
        j : 0.0252499 .. 0.0252499
        k : 0.384377 .. 0.384377

    Block 83 cell size :
        i : 0.0760862 .. 0.0760862
        j : 0.0249894 .. 0.0249894
        k : 0.323793 .. 0.323793

    Block 84 cell size :
        i : 0.0356347 .. 0.0356347
        j : 0.034504 .. 0.034504
        k : 0.386369 .. 0.386369

    Block 85 cell size :
        i : 0.07925 .. 0.07925
        j : 0.02475 .. 0.02475
        k : 0.386369 .. 0.386369

    Block 86 cell size :
        i : 0.07925 .. 0.07925
        j : 0.0250052 .. 0.0250052
        k : 0.449275 .. 0.449275

    Block 87 cell size :
        i : 0.07925 .. 0.07925
        j : 0.0252499 .. 0.0252499
        k : 0.384377 .. 0.384377

    Block 88 cell size :
        i : 0.0760862 .. 0.0760862
        j : 0.0249894 .. 0.0249894
        k : 0.323793 .. 0.323793

    Block 89 cell size :
        i : 0.0356347 .. 0.0356347
        j : 0.034504 .. 0.034504
        k : 0.386369 .. 0.386369

    Block 90 cell size :
        i : 0.07925 .. 0.07925
        j : 0.02475 .. 0.02475
        k : 0.386369 .. 0.386369

    Block 91 cell size :
        i : 0.07925 .. 0.07925
        j : 0.0250052 .. 0.0250052
        k : 0.449275 .. 0.449275

    Block 92 cell size :
        i : 0.07925 .. 0.07925
        j : 0.0252499 .. 0.0252499
        k : 0.384377 .. 0.384377

    Block 93 cell size :
        i : 0.0760862 .. 0.0760862
        j : 0.0249894 .. 0.0249894
        k : 0.323793 .. 0.323793

    Block 94 cell size :
        i : 0.0356347 .. 0.0356347
        j : 0.034504 .. 0.034504
        k : 0.386369 .. 0.386369

    Block 95 cell size :
        i : 0.07925 .. 0.07925
        j : 0.02475 .. 0.02475
        k : 0.386369 .. 0.386369

    Block 96 cell size :
        i : 0.07925 .. 0.07925
        j : 0.0250052 .. 0.0250052
        k : 0.449275 .. 0.449275

    Block 97 cell size :
        i : 0.07925 .. 0.07925
        j : 0.0252499 .. 0.0252499
        k : 0.384377 .. 0.384377

    Block 98 cell size :
        i : 0.0760862 .. 0.0760862
        j : 0.0249894 .. 0.0249894
        k : 0.323793 .. 0.323793

    Block 99 cell size :
        i : 0.0356347 .. 0.0356347
        j : 0.034504 .. 0.034504
        k : 0.386369 .. 0.386369

    Block 100 cell size :
        i : 0.07925 .. 0.07925
        j : 0.02475 .. 0.02475
        k : 0.386369 .. 0.386369

    Block 101 cell size :
        i : 0.07925 .. 0.07925
        j : 0.0250052 .. 0.0250052
        k : 0.449275 .. 0.449275

    Block 102 cell size :
        i : 0.07925 .. 0.07925
        j : 0.0252499 .. 0.0252499
        k : 0.384377 .. 0.384377

    Block 103 cell size :
        i : 0.0760862 .. 0.0760862
        j : 0.0249894 .. 0.0249894
        k : 0.323793 .. 0.323793

    Block 104 cell size :
        i : 0.0356347 .. 0.0356347
        j : 0.034504 .. 0.034504
        k : 0.386369 .. 0.386369

    Block 105 cell size :
        i : 0.07925 .. 0.07925
        j : 0.02475 .. 0.02475
        k : 0.386369 .. 0.386369

    Block 106 cell size :
        i : 0.07925 .. 0.07925
        j : 0.0250052 .. 0.0250052
        k : 0.449275 .. 0.449275

    Block 107 cell size :
        i : 0.07925 .. 0.07925
        j : 0.0252499 .. 0.0252499
        k : 0.384377 .. 0.384377

    Block 108 cell size :
        i : 0.0760862 .. 0.0760862
        j : 0.0249894 .. 0.0249894
        k : 0.323793 .. 0.323793

    Block 109 cell size :
        i : 0.0356347 .. 0.0356347
        j : 0.034504 .. 0.034504
        k : 0.386369 .. 0.386369

    Block 110 cell size :
        i : 0.07925 .. 0.07925
        j : 0.02475 .. 0.02475
        k : 0.386369 .. 0.386369

    Block 111 cell size :
        i : 0.07925 .. 0.07925
        j : 0.0250052 .. 0.0250052
        k : 0.449275 .. 0.449275

    Block 112 cell size :
        i : 0.07925 .. 0.07925
        j : 0.0252499 .. 0.0252499
        k : 0.384377 .. 0.384377

    Block 113 cell size :
        i : 0.0760862 .. 0.0760862
        j : 0.0249894 .. 0.0249894
        k : 0.323793 .. 0.323793

    Block 114 cell size :
        i : 0.0356347 .. 0.0356347
        j : 0.0345039 .. 0.0345039
        k : 0.386369 .. 0.386369

    Block 115 cell size :
        i : 0.07925 .. 0.07925
        j : 0.02475 .. 0.02475
        k : 0.386369 .. 0.386369

    Block 116 cell size :
        i : 0.07925 .. 0.07925
        j : 0.0250052 .. 0.0250052
        k : 0.449275 .. 0.449275

    Block 117 cell size :
        i : 0.07925 .. 0.07925
        j : 0.0252499 .. 0.0252499
        k : 0.384377 .. 0.384377

    Block 118 cell size :
        i : 0.0760862 .. 0.0760862
        j : 0.0249894 .. 0.0249894
        k : 0.323793 .. 0.323793

    Block 119 cell size :
        i : 0.0356347 .. 0.0356347
        j : 0.034504 .. 0.034504
        k : 0.386369 .. 0.386369

    Block 120 cell size :
        i : 0.07925 .. 0.07925
        j : 0.02475 .. 0.02475
        k : 0.386369 .. 0.386369

    Block 121 cell size :
        i : 0.07925 .. 0.07925
        j : 0.0250052 .. 0.0250052
        k : 0.449275 .. 0.449275

    Block 122 cell size :
        i : 0.07925 .. 0.07925
        j : 0.0252499 .. 0.0252499
        k : 0.384377 .. 0.384377

    Block 123 cell size :
        i : 0.0760862 .. 0.0760862
        j : 0.0249894 .. 0.0249894
        k : 0.323793 .. 0.323793

    Block 124 cell size :
        i : 0.0356347 .. 0.0356347
        j : 0.034504 .. 0.034504
        k : 0.386369 .. 0.386369

    Block 125 cell size :
        i : 0.07925 .. 0.07925
        j : 0.02475 .. 0.02475
        k : 0.386369 .. 0.386369

    Block 126 cell size :
        i : 0.07925 .. 0.07925
        j : 0.0250052 .. 0.0250052
        k : 0.449275 .. 0.449275

    Block 127 cell size :
        i : 0.07925 .. 0.07925
        j : 0.0252499 .. 0.0252499
        k : 0.384377 .. 0.384377

    Block 128 cell size :
        i : 0.0760862 .. 0.0760862
        j : 0.0249894 .. 0.0249894
        k : 0.323793 .. 0.323793

    Block 129 cell size :
        i : 0.0356347 .. 0.0356347
        j : 0.034504 .. 0.034504
        k : 0.386369 .. 0.386369

    Block 130 cell size :
        i : 0.07925 .. 0.07925
        j : 0.02475 .. 0.02475
        k : 0.386369 .. 0.386369

    Block 131 cell size :
        i : 0.07925 .. 0.07925
        j : 0.0250052 .. 0.0250052
        k : 0.449275 .. 0.449275

    Block 132 cell size :
        i : 0.07925 .. 0.07925
        j : 0.0252499 .. 0.0252499
        k : 0.384377 .. 0.384377

    Block 133 cell size :
        i : 0.0760862 .. 0.0760862
        j : 0.0249894 .. 0.0249894
        k : 0.323793 .. 0.323793

    Block 134 cell size :
        i : 0.0356347 .. 0.0356347
        j : 0.034504 .. 0.034504
        k : 0.386369 .. 0.386369

    Block 135 cell size :
        i : 0.07925 .. 0.07925
        j : 0.02475 .. 0.02475
        k : 0.386369 .. 0.386369

    Block 136 cell size :
        i : 0.07925 .. 0.07925
        j : 0.0250052 .. 0.0250052
        k : 0.449275 .. 0.449275

    Block 137 cell size :
        i : 0.07925 .. 0.07925
        j : 0.0252499 .. 0.0252499
        k : 0.384377 .. 0.384377

    Block 138 cell size :
        i : 0.0760862 .. 0.0760862
        j : 0.0249894 .. 0.0249894
        k : 0.323793 .. 0.323793

    Block 139 cell size :
        i : 0.0356347 .. 0.0356347
        j : 0.034504 .. 0.034504
        k : 0.386369 .. 0.386369

    Block 140 cell size :
        i : 0.07925 .. 0.07925
        j : 0.02475 .. 0.02475
        k : 0.386369 .. 0.386369

    Block 141 cell size :
        i : 0.07925 .. 0.07925
        j : 0.0250052 .. 0.0250052
        k : 0.449275 .. 0.449275

    Block 142 cell size :
        i : 0.07925 .. 0.07925
        j : 0.0252499 .. 0.0252499
        k : 0.384377 .. 0.384377

    Block 143 cell size :
        i : 0.0760862 .. 0.0760862
        j : 0.0249894 .. 0.0249894
        k : 0.323793 .. 0.323793

    Block 144 cell size :
        i : 0.0356347 .. 0.0356347
        j : 0.034504 .. 0.034504
        k : 0.386369 .. 0.386369

    Block 145 cell size :
        i : 0.07925 .. 0.07925
        j : 0.02475 .. 0.02475
        k : 0.386369 .. 0.386369

    Block 146 cell size :
        i : 0.07925 .. 0.07925
        j : 0.0250052 .. 0.0250052
        k : 0.449275 .. 0.449275

    Block 147 cell size :
        i : 0.07925 .. 0.07925
        j : 0.0252499 .. 0.0252499
        k : 0.384377 .. 0.384377

    Block 148 cell size :
        i : 0.0760862 .. 0.0760862
        j : 0.0249894 .. 0.0249894
        k : 0.323793 .. 0.323793

    Block 149 cell size :
        i : 0.0356347 .. 0.0356347
        j : 0.034504 .. 0.034504
        k : 0.386369 .. 0.386369

    Block 150 cell size :
        i : 0.07925 .. 0.07925
        j : 0.02475 .. 0.02475
        k : 0.386369 .. 0.386369

    Block 151 cell size :
        i : 0.07925 .. 0.07925
        j : 0.0250052 .. 0.0250052
        k : 0.449275 .. 0.449275

    Block 152 cell size :
        i : 0.07925 .. 0.07925
        j : 0.0252499 .. 0.0252499
        k : 0.384377 .. 0.384377

    Block 153 cell size :
        i : 0.0760862 .. 0.0760862
        j : 0.0249894 .. 0.0249894
        k : 0.323793 .. 0.323793

    Block 154 cell size :
        i : 0.0356347 .. 0.0356347
        j : 0.034504 .. 0.034504
        k : 0.386369 .. 0.386369

    Block 155 cell size :
        i : 0.07925 .. 0.07925
        j : 0.02475 .. 0.02475
        k : 0.386369 .. 0.386369

    Block 156 cell size :
        i : 0.07925 .. 0.07925
        j : 0.0250052 .. 0.0250052
        k : 0.449275 .. 0.449275

    Block 157 cell size :
        i : 0.07925 .. 0.07925
        j : 0.0252499 .. 0.0252499
        k : 0.384377 .. 0.384377

    Block 158 cell size :
        i : 0.0760862 .. 0.0760862
        j : 0.0249894 .. 0.0249894
        k : 0.323793 .. 0.323793

    Block 159 cell size :
        i : 0.0356347 .. 0.0356347
        j : 0.034504 .. 0.034504
        k : 0.386369 .. 0.386369

    Block 160 cell size :
        i : 0.07925 .. 0.07925
        j : 0.02475 .. 0.02475
        k : 0.386369 .. 0.386369

    Block 161 cell size :
        i : 0.07925 .. 0.07925
        j : 0.0250052 .. 0.0250052
        k : 0.449275 .. 0.449275

    Block 162 cell size :
        i : 0.07925 .. 0.07925
        j : 0.0252499 .. 0.0252499
        k : 0.384377 .. 0.384377

    Block 163 cell size :
        i : 0.0760862 .. 0.0760862
        j : 0.0249894 .. 0.0249894
        k : 0.323793 .. 0.323793

    Block 164 cell size :
        i : 0.0356347 .. 0.0356347
        j : 0.034504 .. 0.034504
        k : 0.386369 .. 0.386369

    Block 165 cell size :
        i : 0.07925 .. 0.07925
        j : 0.02475 .. 0.02475
        k : 0.386369 .. 0.386369

    Block 166 cell size :
        i : 0.07925 .. 0.07925
        j : 0.0250052 .. 0.0250052
        k : 0.449275 .. 0.449275

    Block 167 cell size :
        i : 0.07925 .. 0.07925
        j : 0.0252499 .. 0.0252499
        k : 0.384377 .. 0.384377

    Block 168 cell size :
        i : 0.0760862 .. 0.0760862
        j : 0.0249894 .. 0.0249894
        k : 0.323793 .. 0.323793

    Block 169 cell size :
        i : 0.0356347 .. 0.0356347
        j : 0.034504 .. 0.034504
        k : 0.386369 .. 0.386369

    Block 170 cell size :
        i : 0.07925 .. 0.07925
        j : 0.02475 .. 0.02475
        k : 0.386369 .. 0.386369

    Block 171 cell size :
        i : 0.07925 .. 0.07925
        j : 0.0250052 .. 0.0250052
        k : 0.449275 .. 0.449275

    Block 172 cell size :
        i : 0.07925 .. 0.07925
        j : 0.0252499 .. 0.0252499
        k : 0.384377 .. 0.384377

    Block 173 cell size :
        i : 0.0760862 .. 0.0760862
        j : 0.0249894 .. 0.0249894
        k : 0.323793 .. 0.323793

    Block 174 cell size :
        i : 0.0356347 .. 0.0356347
        j : 0.034504 .. 0.034504
        k : 0.386369 .. 0.386369

    Block 175 cell size :
        i : 0.07925 .. 0.07925
        j : 0.02475 .. 0.02475
        k : 0.386369 .. 0.386369

    Block 176 cell size :
        i : 0.07925 .. 0.07925
        j : 0.0250052 .. 0.0250052
        k : 0.449275 .. 0.449275

    Block 177 cell size :
        i : 0.07925 .. 0.07925
        j : 0.0252499 .. 0.0252499
        k : 0.384377 .. 0.384377

    Block 178 cell size :
        i : 0.0760862 .. 0.0760862
        j : 0.0249894 .. 0.0249894
        k : 0.323793 .. 0.323793

    Block 179 cell size :
        i : 0.0356347 .. 0.0356347
        j : 0.034504 .. 0.034504
        k : 0.386369 .. 0.386369

    Block 180 cell size :
        i : 0.07925 .. 0.07925
        j : 0.02475 .. 0.02475
        k : 0.386369 .. 0.386369

    Block 181 cell size :
        i : 0.07925 .. 0.07925
        j : 0.0250052 .. 0.0250052
        k : 0.449275 .. 0.449275

    Block 182 cell size :
        i : 0.07925 .. 0.07925
        j : 0.0252499 .. 0.0252499
        k : 0.384377 .. 0.384377

    Block 183 cell size :
        i : 0.0760862 .. 0.0760862
        j : 0.0249894 .. 0.0249894
        k : 0.323793 .. 0.323793

    Block 184 cell size :
        i : 0.0356347 .. 0.0356347
        j : 0.034504 .. 0.034504
        k : 0.386369 .. 0.386369

    Block 185 cell size :
        i : 0.07925 .. 0.07925
        j : 0.02475 .. 0.02475
        k : 0.386369 .. 0.386369

    Block 186 cell size :
        i : 0.07925 .. 0.07925
        j : 0.0250052 .. 0.0250052
        k : 0.449275 .. 0.449275

    Block 187 cell size :
        i : 0.07925 .. 0.07925
        j : 0.0252499 .. 0.0252499
        k : 0.384377 .. 0.384377

    Block 188 cell size :
        i : 0.0760862 .. 0.0760862
        j : 0.0249894 .. 0.0249894
        k : 0.323793 .. 0.323793

    Block 189 cell size :
        i : 0.0356347 .. 0.0356347
        j : 0.034504 .. 0.034504
        k : 0.386369 .. 0.386369

    Block 190 cell size :
        i : 0.07925 .. 0.07925
        j : 0.02475 .. 0.02475
        k : 0.386369 .. 0.386369

    Block 191 cell size :
        i : 0.07925 .. 0.07925
        j : 0.0250052 .. 0.0250052
        k : 0.449275 .. 0.449275

    Block 192 cell size :
        i : 0.07925 .. 0.07925
        j : 0.0252499 .. 0.0252499
        k : 0.384377 .. 0.384377

    Block 193 cell size :
        i : 0.0760862 .. 0.0760862
        j : 0.0249894 .. 0.0249894
        k : 0.323793 .. 0.323793

    Block 194 cell size :
        i : 0.0356347 .. 0.0356347
        j : 0.034504 .. 0.034504
        k : 0.386369 .. 0.386369

    Block 195 cell size :
        i : 0.07925 .. 0.07925
        j : 0.02475 .. 0.02475
        k : 0.386369 .. 0.386369

    Block 196 cell size :
        i : 0.07925 .. 0.07925
        j : 0.0250052 .. 0.0250052
        k : 0.449275 .. 0.449275

    Block 197 cell size :
        i : 0.07925 .. 0.07925
        j : 0.0252499 .. 0.0252499
        k : 0.384377 .. 0.384377

    Block 198 cell size :
        i : 0.0760862 .. 0.0760862
        j : 0.0249894 .. 0.0249894
        k : 0.323793 .. 0.323793

    Block 199 cell size :
        i : 0.0356347 .. 0.0356347
        j : 0.034504 .. 0.034504
        k : 0.386369 .. 0.386369

    Block 200 cell size :
        i : 0.07925 .. 0.07925
        j : 0.02475 .. 0.02475
        k : 0.386369 .. 0.386369

    Block 201 cell size :
        i : 0.07925 .. 0.07925
        j : 0.0250052 .. 0.0250052
        k : 0.449275 .. 0.449275

    Block 202 cell size :
        i : 0.07925 .. 0.07925
        j : 0.0252499 .. 0.0252499
        k : 0.384377 .. 0.384377

    Block 203 cell size :
        i : 0.0760862 .. 0.0760862
        j : 0.0249894 .. 0.0249894
        k : 0.323793 .. 0.323793

    Block 204 cell size :
        i : 0.0356347 .. 0.0356347
        j : 0.034504 .. 0.034504
        k : 0.386369 .. 0.386369

    Block 205 cell size :
        i : 0.07925 .. 0.07925
        j : 0.02475 .. 0.02475
        k : 0.386369 .. 0.386369

    Block 206 cell size :
        i : 0.07925 .. 0.07925
        j : 0.0250052 .. 0.0250052
        k : 0.449275 .. 0.449275

    Block 207 cell size :
        i : 0.07925 .. 0.07925
        j : 0.0252499 .. 0.0252499
        k : 0.384377 .. 0.384377

    Block 208 cell size :
        i : 0.0760862 .. 0.0760862
        j : 0.0249894 .. 0.0249894
        k : 0.323793 .. 0.323793

    Block 209 cell size :
        i : 0.0356347 .. 0.0356347
        j : 0.034504 .. 0.034504
        k : 0.386369 .. 0.386369

    Block 210 cell size :
        i : 0.07925 .. 0.07925
        j : 0.02475 .. 0.02475
        k : 0.386369 .. 0.386369

    Block 211 cell size :
        i : 0.07925 .. 0.07925
        j : 0.0250052 .. 0.0250052
        k : 0.449275 .. 0.449275

    Block 212 cell size :
        i : 0.07925 .. 0.07925
        j : 0.0252499 .. 0.0252499
        k : 0.384377 .. 0.384377

    Block 213 cell size :
        i : 0.0760862 .. 0.0760862
        j : 0.0249894 .. 0.0249894
        k : 0.323793 .. 0.323793

    Block 214 cell size :
        i : 0.0356347 .. 0.0356347
        j : 0.034504 .. 0.034504
        k : 0.386369 .. 0.386369

    Block 215 cell size :
        i : 0.07925 .. 0.07925
        j : 0.02475 .. 0.02475
        k : 0.386369 .. 0.386369

    Block 216 cell size :
        i : 0.07925 .. 0.07925
        j : 0.0250052 .. 0.0250052
        k : 0.449275 .. 0.449275

    Block 217 cell size :
        i : 0.07925 .. 0.07925
        j : 0.0252499 .. 0.0252499
        k : 0.384377 .. 0.384377

    Block 218 cell size :
        i : 0.0760862 .. 0.0760862
        j : 0.0249894 .. 0.0249894
        k : 0.323793 .. 0.323793

    Block 219 cell size :
        i : 0.0356347 .. 0.0356347
        j : 0.034504 .. 0.034504
        k : 0.386369 .. 0.386369

    Block 220 cell size :
        i : 0.07925 .. 0.07925
        j : 0.02475 .. 0.02475
        k : 0.386369 .. 0.386369

    Block 221 cell size :
        i : 0.07925 .. 0.07925
        j : 0.0250052 .. 0.0250052
        k : 0.449275 .. 0.449275

    Block 222 cell size :
        i : 0.07925 .. 0.07925
        j : 0.0252499 .. 0.0252499
        k : 0.384377 .. 0.384377

    Block 223 cell size :
        i : 0.0760862 .. 0.0760862
        j : 0.0249894 .. 0.0249894
        k : 0.323793 .. 0.323793

    Block 224 cell size :
        i : 0.0356347 .. 0.0356347
        j : 0.034504 .. 0.034504
        k : 0.386369 .. 0.386369

    Block 225 cell size :
        i : 0.07925 .. 0.07925
        j : 0.02475 .. 0.02475
        k : 0.386369 .. 0.386369

    Block 226 cell size :
        i : 0.07925 .. 0.07925
        j : 0.0250052 .. 0.0250052
        k : 0.449275 .. 0.449275

    Block 227 cell size :
        i : 0.07925 .. 0.07925
        j : 0.0252499 .. 0.0252499
        k : 0.384377 .. 0.384377

    Block 228 cell size :
        i : 0.0760862 .. 0.0760862
        j : 0.0249894 .. 0.0249894
        k : 0.323793 .. 0.323793

    Block 229 cell size :
        i : 0.0356347 .. 0.0356347
        j : 0.034504 .. 0.034504
        k : 0.386369 .. 0.386369

    Block 230 cell size :
        i : 0.07925 .. 0.07925
        j : 0.02475 .. 0.02475
        k : 0.386369 .. 0.386369

    Block 231 cell size :
        i : 0.07925 .. 0.07925
        j : 0.0250052 .. 0.0250052
        k : 0.449275 .. 0.449275

    Block 232 cell size :
        i : 0.07925 .. 0.07925
        j : 0.0252499 .. 0.0252499
        k : 0.384377 .. 0.384377

    Block 233 cell size :
        i : 0.0760862 .. 0.0760862
        j : 0.0249894 .. 0.0249894
        k : 0.323793 .. 0.323793

    Block 234 cell size :
        i : 0.0356347 .. 0.0356347
        j : 0.034504 .. 0.034504
        k : 0.386369 .. 0.386369

    Block 235 cell size :
        i : 0.07925 .. 0.07925
        j : 0.02475 .. 0.02475
        k : 0.386369 .. 0.386369

    Block 236 cell size :
        i : 0.07925 .. 0.07925
        j : 0.0250052 .. 0.0250052
        k : 0.449275 .. 0.449275

    Block 237 cell size :
        i : 0.07925 .. 0.07925
        j : 0.0252499 .. 0.0252499
        k : 0.384377 .. 0.384377

    Block 238 cell size :
        i : 0.0760862 .. 0.0760862
        j : 0.0249894 .. 0.0249894
        k : 0.323793 .. 0.323793

    Block 239 cell size :
        i : 0.0356347 .. 0.0356347
        j : 0.034504 .. 0.034504
        k : 0.386369 .. 0.386369

    Block 240 cell size :
        i : 0.07925 .. 0.07925
        j : 0.02475 .. 0.02475
        k : 0.386369 .. 0.386369

    Block 241 cell size :
        i : 0.07925 .. 0.07925
        j : 0.0250052 .. 0.0250052
        k : 0.449275 .. 0.449275

    Block 242 cell size :
        i : 0.07925 .. 0.07925
        j : 0.0252499 .. 0.0252499
        k : 0.384377 .. 0.384377

    Block 243 cell size :
        i : 0.0760862 .. 0.0760862
        j : 0.0249894 .. 0.0249894
        k : 0.323793 .. 0.323793

    Block 244 cell size :
        i : 0.0356347 .. 0.0356347
        j : 0.034504 .. 0.034504
        k : 0.386369 .. 0.386369

    Block 245 cell size :
        i : 0.07925 .. 0.07925
        j : 0.02475 .. 0.02475
        k : 0.386369 .. 0.386369

    Block 246 cell size :
        i : 0.07925 .. 0.07925
        j : 0.0250052 .. 0.0250052
        k : 0.449275 .. 0.449275

    Block 247 cell size :
        i : 0.07925 .. 0.07925
        j : 0.0252499 .. 0.0252499
        k : 0.384377 .. 0.384377

    Block 248 cell size :
        i : 0.0760862 .. 0.0760862
        j : 0.0249894 .. 0.0249894
        k : 0.323793 .. 0.323793

    Block 249 cell size :
        i : 0.0356347 .. 0.0356347
        j : 0.034504 .. 0.034504
        k : 0.386369 .. 0.386369

    Block 250 cell size :
        i : 0.07925 .. 0.07925
        j : 0.02475 .. 0.02475
        k : 0.386369 .. 0.386369

    Block 251 cell size :
        i : 0.07925 .. 0.07925
        j : 0.0250052 .. 0.0250052
        k : 0.449275 .. 0.449275

    Block 252 cell size :
        i : 0.07925 .. 0.07925
        j : 0.0252499 .. 0.0252499
        k : 0.384377 .. 0.384377

    Block 253 cell size :
        i : 0.0760862 .. 0.0760862
        j : 0.0249894 .. 0.0249894
        k : 0.323793 .. 0.323793

    Block 254 cell size :
        i : 0.0356347 .. 0.0356347
        j : 0.034504 .. 0.034504
        k : 0.386369 .. 0.386369

    Block 255 cell size :
        i : 0.07925 .. 0.07925
        j : 0.02475 .. 0.02475
        k : 0.386369 .. 0.386369

    Block 256 cell size :
        i : 0.07925 .. 0.07925
        j : 0.0250052 .. 0.0250052
        k : 0.449275 .. 0.449275

    Block 257 cell size :
        i : 0.07925 .. 0.07925
        j : 0.0252499 .. 0.0252499
        k : 0.384377 .. 0.384377

    Block 258 cell size :
        i : 0.0760862 .. 0.0760862
        j : 0.0249894 .. 0.0249894
        k : 0.323793 .. 0.323793

    Block 259 cell size :
        i : 0.0356347 .. 0.0356347
        j : 0.034504 .. 0.034504
        k : 0.386369 .. 0.386369

    Block 260 cell size :
        i : 0.07925 .. 0.07925
        j : 0.02475 .. 0.02475
        k : 0.386369 .. 0.386369

    Block 261 cell size :
        i : 0.07925 .. 0.07925
        j : 0.0250052 .. 0.0250052
        k : 0.449275 .. 0.449275

    Block 262 cell size :
        i : 0.07925 .. 0.07925
        j : 0.0252499 .. 0.0252499
        k : 0.384377 .. 0.384377

    Block 263 cell size :
        i : 0.0760862 .. 0.0760862
        j : 0.0249894 .. 0.0249894
        k : 0.323793 .. 0.323793

    Block 264 cell size :
        i : 0.0356347 .. 0.0356347
        j : 0.034504 .. 0.034504
        k : 0.386369 .. 0.386369

    Block 265 cell size :
        i : 0.07925 .. 0.07925
        j : 0.02475 .. 0.02475
        k : 0.386369 .. 0.386369

    Block 266 cell size :
        i : 0.07925 .. 0.07925
        j : 0.0250052 .. 0.0250052
        k : 0.449275 .. 0.449275

    Block 267 cell size :
        i : 0.07925 .. 0.07925
        j : 0.0252499 .. 0.0252499
        k : 0.384377 .. 0.384377

    Block 268 cell size :
        i : 0.0760862 .. 0.0760862
        j : 0.0249894 .. 0.0249894
        k : 0.323793 .. 0.323793

    Block 269 cell size :
        i : 0.0356347 .. 0.0356347
        j : 0.034504 .. 0.034504
        k : 0.386369 .. 0.386369

    Block 270 cell size :
        i : 0.07925 .. 0.07925
        j : 0.02475 .. 0.02475
        k : 0.386369 .. 0.386369

    Block 271 cell size :
        i : 0.07925 .. 0.07925
        j : 0.0250052 .. 0.0250052
        k : 0.449275 .. 0.449275

    Block 272 cell size :
        i : 0.07925 .. 0.07925
        j : 0.0252499 .. 0.0252499
        k : 0.384377 .. 0.384377

    Block 273 cell size :
        i : 0.0760862 .. 0.0760862
        j : 0.0249894 .. 0.0249894
        k : 0.323793 .. 0.323793

    Block 274 cell size :
        i : 0.0356347 .. 0.0356347
        j : 0.034504 .. 0.034504
        k : 0.386369 .. 0.386369

    Block 275 cell size :
        i : 0.07925 .. 0.07925
        j : 0.02475 .. 0.02475
        k : 0.386369 .. 0.386369

    Block 276 cell size :
        i : 0.07925 .. 0.07925
        j : 0.0250052 .. 0.0250052
        k : 0.449275 .. 0.449275

    Block 277 cell size :
        i : 0.07925 .. 0.07925
        j : 0.0252499 .. 0.0252499
        k : 0.384377 .. 0.384377

    Block 278 cell size :
        i : 0.0760862 .. 0.0760862
        j : 0.0249894 .. 0.0249894
        k : 0.323793 .. 0.323793

    Block 279 cell size :
        i : 0.0356347 .. 0.0356347
        j : 0.034504 .. 0.034504
        k : 0.386369 .. 0.386369

    Block 280 cell size :
        i : 0.07925 .. 0.07925
        j : 0.02475 .. 0.02475
        k : 0.386369 .. 0.386369

    Block 281 cell size :
        i : 0.07925 .. 0.07925
        j : 0.0250052 .. 0.0250052
        k : 0.449275 .. 0.449275

    Block 282 cell size :
        i : 0.07925 .. 0.07925
        j : 0.0252499 .. 0.0252499
        k : 0.384377 .. 0.384377

    Block 283 cell size :
        i : 0.0760862 .. 0.0760862
        j : 0.0249894 .. 0.0249894
        k : 0.323793 .. 0.323793

    Block 284 cell size :
        i : 0.0356347 .. 0.0356347
        j : 0.034504 .. 0.034504
        k : 0.386369 .. 0.386369

    Block 285 cell size :
        i : 0.07925 .. 0.07925
        j : 0.02475 .. 0.02475
        k : 0.386369 .. 0.386369

    Block 286 cell size :
        i : 0.07925 .. 0.07925
        j : 0.0250052 .. 0.0250052
        k : 0.449275 .. 0.449275

    Block 287 cell size :
        i : 0.07925 .. 0.07925
        j : 0.0252499 .. 0.0252499
        k : 0.384377 .. 0.384377

    Block 288 cell size :
        i : 0.0760862 .. 0.0760862
        j : 0.0249894 .. 0.0249894
        k : 0.323793 .. 0.323793

    Block 289 cell size :
        i : 0.0356347 .. 0.0356347
        j : 0.034504 .. 0.034504
        k : 0.386369 .. 0.386369

    Block 290 cell size :
        i : 0.07925 .. 0.07925
        j : 0.02475 .. 0.02475
        k : 0.386369 .. 0.386369

    Block 291 cell size :
        i : 0.07925 .. 0.07925
        j : 0.0250052 .. 0.0250052
        k : 0.449275 .. 0.449275

    Block 292 cell size :
        i : 0.07925 .. 0.07925
        j : 0.0252499 .. 0.0252499
        k : 0.384377 .. 0.384377

    Block 293 cell size :
        i : 0.0760862 .. 0.0760862
        j : 0.0249894 .. 0.0249894
        k : 0.323793 .. 0.323793

    Block 294 cell size :
        i : 0.0356347 .. 0.0356347
        j : 0.034504 .. 0.034504
        k : 0.386369 .. 0.386369

    Block 295 cell size :
        i : 0.07925 .. 0.07925
        j : 0.02475 .. 0.02475
        k : 0.386369 .. 0.386369

    Block 296 cell size :
        i : 0.07925 .. 0.07925
        j : 0.0250052 .. 0.0250052
        k : 0.449275 .. 0.449275

    Block 297 cell size :
        i : 0.07925 .. 0.07925
        j : 0.0252499 .. 0.0252499
        k : 0.384377 .. 0.384377

    Block 298 cell size :
        i : 0.0760862 .. 0.0760862
        j : 0.0249894 .. 0.0249894
        k : 0.323793 .. 0.323793

    Block 299 cell size :
        i : 0.0356347 .. 0.0356347
        j : 0.034504 .. 0.034504
        k : 0.386369 .. 0.386369

    Block 300 cell size :
        i : 0.07925 .. 0.07925
        j : 0.02475 .. 0.02475
        k : 0.386369 .. 0.386369

    Block 301 cell size :
        i : 0.07925 .. 0.07925
        j : 0.0250052 .. 0.0250052
        k : 0.449275 .. 0.449275

    Block 302 cell size :
        i : 0.07925 .. 0.07925
        j : 0.0252499 .. 0.0252499
        k : 0.384377 .. 0.384377

    Block 303 cell size :
        i : 0.0760862 .. 0.0760862
        j : 0.0249894 .. 0.0249894
        k : 0.323793 .. 0.323793

    Block 304 cell size :
        i : 0.0356347 .. 0.0356347
        j : 0.034504 .. 0.034504
        k : 0.386369 .. 0.386369

    Block 305 cell size :
        i : 0.07925 .. 0.07925
        j : 0.02475 .. 0.02475
        k : 0.386369 .. 0.386369

    Block 306 cell size :
        i : 0.07925 .. 0.07925
        j : 0.0250052 .. 0.0250052
        k : 0.449275 .. 0.449275

    Block 307 cell size :
        i : 0.07925 .. 0.07925
        j : 0.0252499 .. 0.0252499
        k : 0.384377 .. 0.384377

    Block 308 cell size :
        i : 0.0760862 .. 0.0760862
        j : 0.0249894 .. 0.0249894
        k : 0.323793 .. 0.323793

    Block 309 cell size :
        i : 0.0356347 .. 0.0356347
        j : 0.034504 .. 0.034504
        k : 0.386369 .. 0.386369

    Block 310 cell size :
        i : 0.07925 .. 0.07925
        j : 0.02475 .. 0.02475
        k : 0.386369 .. 0.386369

    Block 311 cell size :
        i : 0.07925 .. 0.07925
        j : 0.0250052 .. 0.0250052
        k : 0.449275 .. 0.449275

    Block 312 cell size :
        i : 0.07925 .. 0.07925
        j : 0.0252499 .. 0.0252499
        k : 0.384377 .. 0.384377

    Block 313 cell size :
        i : 0.0760862 .. 0.0760862
        j : 0.0249894 .. 0.0249894
        k : 0.323793 .. 0.323793

    Block 314 cell size :
        i : 0.0356347 .. 0.0356347
        j : 0.034504 .. 0.034504
        k : 0.386369 .. 0.386369

    Block 315 cell size :
        i : 0.07925 .. 0.07925
        j : 0.02475 .. 0.02475
        k : 0.386369 .. 0.386369

    Block 316 cell size :
        i : 0.07925 .. 0.07925
        j : 0.0250052 .. 0.0250052
        k : 0.449275 .. 0.449275

    Block 317 cell size :
        i : 0.07925 .. 0.07925
        j : 0.0252499 .. 0.0252499
        k : 0.384377 .. 0.384377

    Block 318 cell size :
        i : 0.0760862 .. 0.0760862
        j : 0.0249894 .. 0.0249894
        k : 0.323793 .. 0.323793

    Block 319 cell size :
        i : 0.0356347 .. 0.0356347
        j : 0.034504 .. 0.034504
        k : 0.386369 .. 0.386369

    Block 320 cell size :
        i : 0.07925 .. 0.07925
        j : 0.02475 .. 0.02475
        k : 0.386369 .. 0.386369

    Block 321 cell size :
        i : 0.07925 .. 0.07925
        j : 0.0250052 .. 0.0250052
        k : 0.449275 .. 0.449275

    Block 322 cell size :
        i : 0.07925 .. 0.07925
        j : 0.0252499 .. 0.0252499
        k : 0.384377 .. 0.384377

    Block 323 cell size :
        i : 0.0760862 .. 0.0760862
        j : 0.0249894 .. 0.0249894
        k : 0.323793 .. 0.323793

    Block 324 cell size :
        i : 0.0356347 .. 0.0356347
        j : 0.034504 .. 0.034504
        k : 0.386369 .. 0.386369

    Block 325 cell size :
        i : 0.07925 .. 0.07925
        j : 0.02475 .. 0.02475
        k : 0.386369 .. 0.386369

    Block 326 cell size :
        i : 0.07925 .. 0.07925
        j : 0.0250052 .. 0.0250052
        k : 0.449275 .. 0.449275

    Block 327 cell size :
        i : 0.07925 .. 0.07925
        j : 0.0252499 .. 0.0252499
        k : 0.384377 .. 0.384377

    Block 328 cell size :
        i : 0.0760862 .. 0.0760862
        j : 0.0249894 .. 0.0249894
        k : 0.323793 .. 0.323793

    Block 329 cell size :
        i : 0.0356347 .. 0.0356347
        j : 0.034504 .. 0.034504
        k : 0.386369 .. 0.386369

    Block 330 cell size :
        i : 0.07925 .. 0.07925
        j : 0.02475 .. 0.02475
        k : 0.386369 .. 0.386369

    Block 331 cell size :
        i : 0.07925 .. 0.07925
        j : 0.0250052 .. 0.0250052
        k : 0.449275 .. 0.449275

    Block 332 cell size :
        i : 0.07925 .. 0.07925
        j : 0.0252499 .. 0.0252499
        k : 0.384377 .. 0.384377

    Block 333 cell size :
        i : 0.0760862 .. 0.0760862
        j : 0.0249894 .. 0.0249894
        k : 0.323793 .. 0.323793

    Block 334 cell size :
        i : 0.0356347 .. 0.0356347
        j : 0.034504 .. 0.034504
        k : 0.386369 .. 0.386369

    Block 335 cell size :
        i : 0.07925 .. 0.07925
        j : 0.02475 .. 0.02475
        k : 0.386369 .. 0.386369

    Block 336 cell size :
        i : 0.07925 .. 0.07925
        j : 0.0250052 .. 0.0250052
        k : 0.449275 .. 0.449275

    Block 337 cell size :
        i : 0.07925 .. 0.07925
        j : 0.0252499 .. 0.0252499
        k : 0.384377 .. 0.384377

    Block 338 cell size :
        i : 0.0760862 .. 0.0760862
        j : 0.0249894 .. 0.0249894
        k : 0.323793 .. 0.323793

    Block 339 cell size :
        i : 0.0356347 .. 0.0356347
        j : 0.034504 .. 0.034504
        k : 0.386369 .. 0.386369

    Block 340 cell size :
        i : 0.07925 .. 0.07925
        j : 0.02475 .. 0.02475
        k : 0.386369 .. 0.386369

    Block 341 cell size :
        i : 0.07925 .. 0.07925
        j : 0.0250052 .. 0.0250052
        k : 0.449275 .. 0.449275

    Block 342 cell size :
        i : 0.07925 .. 0.07925
        j : 0.0252499 .. 0.0252499
        k : 0.384377 .. 0.384377

    Block 343 cell size :
        i : 0.0760862 .. 0.0760862
        j : 0.0249894 .. 0.0249894
        k : 0.323793 .. 0.323793

    Block 344 cell size :
        i : 0.0356347 .. 0.0356347
        j : 0.034504 .. 0.034504
        k : 0.386369 .. 0.386369

    Block 345 cell size :
        i : 0.07925 .. 0.07925
        j : 0.02475 .. 0.02475
        k : 0.386369 .. 0.386369

    Block 346 cell size :
        i : 0.07925 .. 0.07925
        j : 0.0250052 .. 0.0250052
        k : 0.449275 .. 0.449275

    Block 347 cell size :
        i : 0.07925 .. 0.07925
        j : 0.0252499 .. 0.0252499
        k : 0.384377 .. 0.384377

    Block 348 cell size :
        i : 0.0760862 .. 0.0760862
        j : 0.0249894 .. 0.0249894
        k : 0.323793 .. 0.323793

    Block 349 cell size :
        i : 0.0356347 .. 0.0356347
        j : 0.034504 .. 0.034504
        k : 0.386369 .. 0.386369

    Block 350 cell size :
        i : 0.07925 .. 0.07925
        j : 0.02475 .. 0.02475
        k : 0.386369 .. 0.386369

    Block 351 cell size :
        i : 0.07925 .. 0.07925
        j : 0.0250052 .. 0.0250052
        k : 0.449275 .. 0.449275

    Block 352 cell size :
        i : 0.07925 .. 0.07925
        j : 0.0252499 .. 0.0252499
        k : 0.384377 .. 0.384377

    Block 353 cell size :
        i : 0.0760862 .. 0.0760862
        j : 0.0249894 .. 0.0249894
        k : 0.323793 .. 0.323793

    Block 354 cell size :
        i : 0.0356347 .. 0.0356347
        j : 0.0345039 .. 0.0345039
        k : 0.386369 .. 0.386369

    Block 355 cell size :
        i : 0.07925 .. 0.07925
        j : 0.02475 .. 0.02475
        k : 0.386369 .. 0.386369

    Block 356 cell size :
        i : 0.07925 .. 0.07925
        j : 0.0250052 .. 0.0250052
        k : 0.449275 .. 0.449275

    Block 357 cell size :
        i : 0.07925 .. 0.07925
        j : 0.0252499 .. 0.0252499
        k : 0.384377 .. 0.384377

    Block 358 cell size :
        i : 0.0760862 .. 0.0760862
        j : 0.0249894 .. 0.0249894
        k : 0.323793 .. 0.323793

    Block 359 cell size :
        i : 0.0356347 .. 0.0356347
        j : 0.034504 .. 0.034504
        k : 0.386369 .. 0.386369

    Block 360 cell size :
        i : 0.07925 .. 0.07925
        j : 0.02475 .. 0.02475
        k : 0.386369 .. 0.386369

    Block 361 cell size :
        i : 0.07925 .. 0.07925
        j : 0.0250052 .. 0.0250052
        k : 0.449275 .. 0.449275

    Block 362 cell size :
        i : 0.07925 .. 0.07925
        j : 0.0252499 .. 0.0252499
        k : 0.384377 .. 0.384377

    Block 363 cell size :
        i : 0.0760862 .. 0.0760862
        j : 0.0249894 .. 0.0249894
        k : 0.323793 .. 0.323793

    Block 364 cell size :
        i : 0.0356347 .. 0.0356347
        j : 0.034504 .. 0.034504
        k : 0.386369 .. 0.386369

    Block 365 cell size :
        i : 0.07925 .. 0.07925
        j : 0.02475 .. 0.02475
        k : 0.386369 .. 0.386369

    Block 366 cell size :
        i : 0.07925 .. 0.07925
        j : 0.0250052 .. 0.0250052
        k : 0.449275 .. 0.449275

    Block 367 cell size :
        i : 0.07925 .. 0.07925
        j : 0.0252499 .. 0.0252499
        k : 0.384377 .. 0.384377

    Block 368 cell size :
        i : 0.0760862 .. 0.0760862
        j : 0.0249894 .. 0.0249894
        k : 0.323793 .. 0.323793

    Block 369 cell size :
        i : 0.0356347 .. 0.0356347
        j : 0.034504 .. 0.034504
        k : 0.386369 .. 0.386369

    Block 370 cell size :
        i : 0.07925 .. 0.07925
        j : 0.02475 .. 0.02475
        k : 0.386369 .. 0.386369

    Block 371 cell size :
        i : 0.07925 .. 0.07925
        j : 0.0250052 .. 0.0250052
        k : 0.449275 .. 0.449275

    Block 372 cell size :
        i : 0.07925 .. 0.07925
        j : 0.0252499 .. 0.0252499
        k : 0.384377 .. 0.384377

    Block 373 cell size :
        i : 0.0760862 .. 0.0760862
        j : 0.0249894 .. 0.0249894
        k : 0.323793 .. 0.323793

    Block 374 cell size :
        i : 0.0356347 .. 0.0356347
        j : 0.034504 .. 0.034504
        k : 0.386369 .. 0.386369

    Block 375 cell size :
        i : 0.07925 .. 0.07925
        j : 0.02475 .. 0.02475
        k : 0.386369 .. 0.386369

    Block 376 cell size :
        i : 0.07925 .. 0.07925
        j : 0.0250052 .. 0.0250052
        k : 0.449275 .. 0.449275

    Block 377 cell size :
        i : 0.07925 .. 0.07925
        j : 0.0252499 .. 0.0252499
        k : 0.384377 .. 0.384377

    Block 378 cell size :
        i : 0.0760862 .. 0.0760862
        j : 0.0249894 .. 0.0249894
        k : 0.323793 .. 0.323793

    Block 379 cell size :
        i : 0.0356347 .. 0.0356347
        j : 0.034504 .. 0.034504
        k : 0.386369 .. 0.386369

    Block 380 cell size :
        i : 0.07925 .. 0.07925
        j : 0.02475 .. 0.02475
        k : 0.386369 .. 0.386369

    Block 381 cell size :
        i : 0.07925 .. 0.07925
        j : 0.0250052 .. 0.0250052
        k : 0.449275 .. 0.449275

    Block 382 cell size :
        i : 0.07925 .. 0.07925
        j : 0.0252499 .. 0.0252499
        k : 0.384377 .. 0.384377

    Block 383 cell size :
        i : 0.0760862 .. 0.0760862
        j : 0.0249894 .. 0.0249894
        k : 0.323793 .. 0.323793

    Block 384 cell size :
        i : 0.0356347 .. 0.0356347
        j : 0.034504 .. 0.034504
        k : 0.386369 .. 0.386369

    Block 385 cell size :
        i : 0.07925 .. 0.07925
        j : 0.02475 .. 0.02475
        k : 0.386369 .. 0.386369

    Block 386 cell size :
        i : 0.07925 .. 0.07925
        j : 0.0250052 .. 0.0250052
        k : 0.449275 .. 0.449275

    Block 387 cell size :
        i : 0.07925 .. 0.07925
        j : 0.0252499 .. 0.0252499
        k : 0.384377 .. 0.384377

    Block 388 cell size :
        i : 0.0760862 .. 0.0760862
        j : 0.0249894 .. 0.0249894
        k : 0.323793 .. 0.323793

    Block 389 cell size :
        i : 0.0356347 .. 0.0356347
        j : 0.034504 .. 0.034504
        k : 0.386369 .. 0.386369

    Block 390 cell size :
        i : 0.07925 .. 0.07925
        j : 0.02475 .. 0.02475
        k : 0.386369 .. 0.386369

    Block 391 cell size :
        i : 0.07925 .. 0.07925
        j : 0.0250052 .. 0.0250052
        k : 0.449275 .. 0.449275

    Block 392 cell size :
        i : 0.07925 .. 0.07925
        j : 0.0252499 .. 0.0252499
        k : 0.384377 .. 0.384377

    Block 393 cell size :
        i : 0.0760862 .. 0.0760862
        j : 0.0249894 .. 0.0249894
        k : 0.323793 .. 0.323793

    Block 394 cell size :
        i : 0.0356347 .. 0.0356347
        j : 0.034504 .. 0.034504
        k : 0.386369 .. 0.386369

    Block 395 cell size :
        i : 0.07925 .. 0.07925
        j : 0.02475 .. 0.02475
        k : 0.386369 .. 0.386369

    Block 396 cell size :
        i : 0.07925 .. 0.07925
        j : 0.0250052 .. 0.0250052
        k : 0.449275 .. 0.449275

    Block 397 cell size :
        i : 0.07925 .. 0.07925
        j : 0.0252499 .. 0.0252499
        k : 0.384377 .. 0.384377

    Block 398 cell size :
        i : 0.0760862 .. 0.0760862
        j : 0.0249894 .. 0.0249894
        k : 0.323793 .. 0.323793

    Block 399 cell size :
        i : 0.0356347 .. 0.0356347
        j : 0.034504 .. 0.034504
        k : 0.386369 .. 0.386369

    Block 400 cell size :
        i : 0.07925 .. 0.07925
        j : 0.02475 .. 0.02475
        k : 0.386369 .. 0.386369

    Block 401 cell size :
        i : 0.07925 .. 0.07925
        j : 0.0250052 .. 0.0250052
        k : 0.449275 .. 0.449275

    Block 402 cell size :
        i : 0.07925 .. 0.07925
        j : 0.0252499 .. 0.0252499
        k : 0.384377 .. 0.384377

    Block 403 cell size :
        i : 0.0760862 .. 0.0760862
        j : 0.0249894 .. 0.0249894
        k : 0.323793 .. 0.323793

    Block 404 cell size :
        i : 0.0356347 .. 0.0356347
        j : 0.034504 .. 0.034504
        k : 0.386369 .. 0.386369

    Block 405 cell size :
        i : 0.07925 .. 0.07925
        j : 0.02475 .. 0.02475
        k : 0.386369 .. 0.386369

    Block 406 cell size :
        i : 0.07925 .. 0.07925
        j : 0.0250052 .. 0.0250052
        k : 0.449275 .. 0.449275

    Block 407 cell size :
        i : 0.07925 .. 0.07925
        j : 0.0252499 .. 0.0252499
        k : 0.384377 .. 0.384377

    Block 408 cell size :
        i : 0.0760862 .. 0.0760862
        j : 0.0249894 .. 0.0249894
        k : 0.323793 .. 0.323793

    Block 409 cell size :
        i : 0.0356347 .. 0.0356347
        j : 0.034504 .. 0.034504
        k : 0.386369 .. 0.386369

    Block 410 cell size :
        i : 0.07925 .. 0.07925
        j : 0.02475 .. 0.02475
        k : 0.386369 .. 0.386369

    Block 411 cell size :
        i : 0.07925 .. 0.07925
        j : 0.0250052 .. 0.0250052
        k : 0.449275 .. 0.449275

    Block 412 cell size :
        i : 0.07925 .. 0.07925
        j : 0.0252499 .. 0.0252499
        k : 0.384377 .. 0.384377

    Block 413 cell size :
        i : 0.0760862 .. 0.0760862
        j : 0.0249894 .. 0.0249894
        k : 0.323793 .. 0.323793

    Block 414 cell size :
        i : 0.0356347 .. 0.0356347
        j : 0.034504 .. 0.034504
        k : 0.386369 .. 0.386369

    Block 415 cell size :
        i : 0.07925 .. 0.07925
        j : 0.02475 .. 0.02475
        k : 0.386369 .. 0.386369

    Block 416 cell size :
        i : 0.07925 .. 0.07925
        j : 0.0250052 .. 0.0250052
        k : 0.449275 .. 0.449275

    Block 417 cell size :
        i : 0.07925 .. 0.07925
        j : 0.0252499 .. 0.0252499
        k : 0.384377 .. 0.384377

    Block 418 cell size :
        i : 0.0760862 .. 0.0760862
        j : 0.0249894 .. 0.0249894
        k : 0.323793 .. 0.323793

    Block 419 cell size :
        i : 0.0356347 .. 0.0356347
        j : 0.034504 .. 0.034504
        k : 0.386369 .. 0.386369

    Block 420 cell size :
        i : 0.07925 .. 0.07925
        j : 0.02475 .. 0.02475
        k : 0.386369 .. 0.386369

    Block 421 cell size :
        i : 0.07925 .. 0.07925
        j : 0.0250052 .. 0.0250052
        k : 0.449275 .. 0.449275

    Block 422 cell size :
        i : 0.07925 .. 0.07925
        j : 0.0252499 .. 0.0252499
        k : 0.384377 .. 0.384377

    Block 423 cell size :
        i : 0.0760862 .. 0.0760862
        j : 0.0249894 .. 0.0249894
        k : 0.323793 .. 0.323793

    Block 424 cell size :
        i : 0.0356347 .. 0.0356347
        j : 0.034504 .. 0.034504
        k : 0.386369 .. 0.386369

    Block 425 cell size :
        i : 0.07925 .. 0.07925
        j : 0.02475 .. 0.02475
        k : 0.386369 .. 0.386369

    Block 426 cell size :
        i : 0.07925 .. 0.07925
        j : 0.0250052 .. 0.0250052
        k : 0.449275 .. 0.449275

    Block 427 cell size :
        i : 0.07925 .. 0.07925
        j : 0.0252499 .. 0.0252499
        k : 0.384377 .. 0.384377

    Block 428 cell size :
        i : 0.0760862 .. 0.0760862
        j : 0.0249894 .. 0.0249894
        k : 0.323793 .. 0.323793

    Block 429 cell size :
        i : 0.0356347 .. 0.0356347
        j : 0.034504 .. 0.034504
        k : 0.386369 .. 0.386369

    Block 430 cell size :
        i : 0.07925 .. 0.07925
        j : 0.02475 .. 0.02475
        k : 0.386369 .. 0.386369

    Block 431 cell size :
        i : 0.07925 .. 0.07925
        j : 0.0250052 .. 0.0250052
        k : 0.449275 .. 0.449275

    Block 432 cell size :
        i : 0.07925 .. 0.07925
        j : 0.0252499 .. 0.0252499
        k : 0.384377 .. 0.384377

    Block 433 cell size :
        i : 0.0760862 .. 0.0760862
        j : 0.0249894 .. 0.0249894
        k : 0.323793 .. 0.323793

    Block 434 cell size :
        i : 0.0356347 .. 0.0356347
        j : 0.034504 .. 0.034504
        k : 0.386369 .. 0.386369

    Block 435 cell size :
        i : 0.07925 .. 0.07925
        j : 0.02475 .. 0.02475
        k : 0.386369 .. 0.386369

    Block 436 cell size :
        i : 0.07925 .. 0.07925
        j : 0.0250052 .. 0.0250052
        k : 0.449275 .. 0.449275

    Block 437 cell size :
        i : 0.07925 .. 0.07925
        j : 0.0252499 .. 0.0252499
        k : 0.384377 .. 0.384377

    Block 438 cell size :
        i : 0.0760862 .. 0.0760862
        j : 0.0249894 .. 0.0249894
        k : 0.323793 .. 0.323793

    Block 439 cell size :
        i : 0.0356347 .. 0.0356347
        j : 0.034504 .. 0.034504
        k : 0.386369 .. 0.386369

    Block 440 cell size :
        i : 0.07925 .. 0.07925
        j : 0.02475 .. 0.02475
        k : 0.386369 .. 0.386369

    Block 441 cell size :
        i : 0.07925 .. 0.07925
        j : 0.0250052 .. 0.0250052
        k : 0.449275 .. 0.449275

    Block 442 cell size :
        i : 0.07925 .. 0.07925
        j : 0.0252499 .. 0.0252499
        k : 0.384377 .. 0.384377

    Block 443 cell size :
        i : 0.0760862 .. 0.0760862
        j : 0.0249894 .. 0.0249894
        k : 0.323793 .. 0.323793

    Block 444 cell size :
        i : 0.0356347 .. 0.0356347
        j : 0.034504 .. 0.034504
        k : 0.386369 .. 0.386369

    Block 445 cell size :
        i : 0.07925 .. 0.07925
        j : 0.02475 .. 0.02475
        k : 0.386369 .. 0.386369

    Block 446 cell size :
        i : 0.07925 .. 0.07925
        j : 0.0250052 .. 0.0250052
        k : 0.449275 .. 0.449275

    Block 447 cell size :
        i : 0.07925 .. 0.07925
        j : 0.0252499 .. 0.0252499
        k : 0.384377 .. 0.384377

    Block 448 cell size :
        i : 0.0760862 .. 0.0760862
        j : 0.0249894 .. 0.0249894
        k : 0.323793 .. 0.323793

    Block 449 cell size :
        i : 0.0356347 .. 0.0356347
        j : 0.034504 .. 0.034504
        k : 0.386369 .. 0.386369

    Block 450 cell size :
        i : 0.07925 .. 0.07925
        j : 0.02475 .. 0.02475
        k : 0.386369 .. 0.386369

    Block 451 cell size :
        i : 0.07925 .. 0.07925
        j : 0.0250052 .. 0.0250052
        k : 0.449275 .. 0.449275

    Block 452 cell size :
        i : 0.07925 .. 0.07925
        j : 0.0252499 .. 0.0252499
        k : 0.384377 .. 0.384377

    Block 453 cell size :
        i : 0.0760862 .. 0.0760862
        j : 0.0249894 .. 0.0249894
        k : 0.323793 .. 0.323793

    Block 454 cell size :
        i : 0.0356347 .. 0.0356347
        j : 0.034504 .. 0.034504
        k : 0.386369 .. 0.386369

    Block 455 cell size :
        i : 0.07925 .. 0.07925
        j : 0.02475 .. 0.02475
        k : 0.386369 .. 0.386369

    Block 456 cell size :
        i : 0.07925 .. 0.07925
        j : 0.0250052 .. 0.0250052
        k : 0.449275 .. 0.449275

    Block 457 cell size :
        i : 0.07925 .. 0.07925
        j : 0.0252499 .. 0.0252499
        k : 0.384377 .. 0.384377

    Block 458 cell size :
        i : 0.0760862 .. 0.0760862
        j : 0.0249894 .. 0.0249894
        k : 0.323793 .. 0.323793

    Block 459 cell size :
        i : 0.0356347 .. 0.0356347
        j : 0.034504 .. 0.034504
        k : 0.386369 .. 0.386369

    Block 460 cell size :
        i : 0.07925 .. 0.07925
        j : 0.02475 .. 0.02475
        k : 0.386369 .. 0.386369

    Block 461 cell size :
        i : 0.07925 .. 0.07925
        j : 0.0250052 .. 0.0250052
        k : 0.449275 .. 0.449275

    Block 462 cell size :
        i : 0.07925 .. 0.07925
        j : 0.0252499 .. 0.0252499
        k : 0.384377 .. 0.384377

    Block 463 cell size :
        i : 0.0760862 .. 0.0760862
        j : 0.0249894 .. 0.0249894
        k : 0.323793 .. 0.323793

    Block 464 cell size :
        i : 0.0356347 .. 0.0356347
        j : 0.034504 .. 0.034504
        k : 0.386369 .. 0.386369

    Block 465 cell size :
        i : 0.07925 .. 0.07925
        j : 0.02475 .. 0.02475
        k : 0.386369 .. 0.386369

    Block 466 cell size :
        i : 0.07925 .. 0.07925
        j : 0.0250052 .. 0.0250052
        k : 0.449275 .. 0.449275

    Block 467 cell size :
        i : 0.07925 .. 0.07925
        j : 0.0252499 .. 0.0252499
        k : 0.384377 .. 0.384377

    Block 468 cell size :
        i : 0.0760862 .. 0.0760862
        j : 0.0249894 .. 0.0249894
        k : 0.323793 .. 0.323793

    Block 469 cell size :
        i : 0.0356347 .. 0.0356347
        j : 0.034504 .. 0.034504
        k : 0.386369 .. 0.386369

    Block 470 cell size :
        i : 0.07925 .. 0.07925
        j : 0.02475 .. 0.02475
        k : 0.386369 .. 0.386369

    Block 471 cell size :
        i : 0.07925 .. 0.07925
        j : 0.0250052 .. 0.0250052
        k : 0.449275 .. 0.449275

    Block 472 cell size :
        i : 0.07925 .. 0.07925
        j : 0.0252499 .. 0.0252499
        k : 0.384377 .. 0.384377

    Block 473 cell size :
        i : 0.0760862 .. 0.0760862
        j : 0.0249894 .. 0.0249894
        k : 0.323793 .. 0.323793

    Block 474 cell size :
        i : 0.0356347 .. 0.0356347
        j : 0.034504 .. 0.034504
        k : 0.386369 .. 0.386369

    Block 475 cell size :
        i : 0.07925 .. 0.07925
        j : 0.02475 .. 0.02475
        k : 0.386369 .. 0.386369

    Block 476 cell size :
        i : 0.07925 .. 0.07925
        j : 0.0250052 .. 0.0250052
        k : 0.449275 .. 0.449275

    Block 477 cell size :
        i : 0.07925 .. 0.07925
        j : 0.0252499 .. 0.0252499
        k : 0.384377 .. 0.384377

    Block 478 cell size :
        i : 0.0760862 .. 0.0760862
        j : 0.0249894 .. 0.0249894
        k : 0.323793 .. 0.323793

    Block 479 cell size :
        i : 0.0356347 .. 0.0356347
        j : 0.034504 .. 0.034504
        k : 0.386369 .. 0.386369

    Block 480 cell size :
        i : 0.07925 .. 0.07925
        j : 0.02475 .. 0.02475
        k : 0.386369 .. 0.386369

    Block 481 cell size :
        i : 0.07925 .. 0.07925
        j : 0.0250052 .. 0.0250052
        k : 0.449275 .. 0.449275

    Block 482 cell size :
        i : 0.07925 .. 0.07925
        j : 0.0252499 .. 0.0252499
        k : 0.384377 .. 0.384377

    Block 483 cell size :
        i : 0.0760862 .. 0.0760862
        j : 0.0249894 .. 0.0249894
        k : 0.323793 .. 0.323793

    Block 484 cell size :
        i : 0.0356347 .. 0.0356347
        j : 0.034504 .. 0.034504
        k : 0.386369 .. 0.386369

    Block 485 cell size :
        i : 0.07925 .. 0.07925
        j : 0.02475 .. 0.02475
        k : 0.386369 .. 0.386369

    Block 486 cell size :
        i : 0.07925 .. 0.07925
        j : 0.0250052 .. 0.0250052
        k : 0.449275 .. 0.449275

    Block 487 cell size :
        i : 0.07925 .. 0.07925
        j : 0.0252499 .. 0.0252499
        k : 0.384377 .. 0.384377

    Block 488 cell size :
        i : 0.0760862 .. 0.0760862
        j : 0.0249894 .. 0.0249894
        k : 0.323793 .. 0.323793

    Block 489 cell size :
        i : 0.0356347 .. 0.0356347
        j : 0.034504 .. 0.034504
        k : 0.386369 .. 0.386369

    Block 490 cell size :
        i : 0.07925 .. 0.07925
        j : 0.02475 .. 0.02475
        k : 0.386369 .. 0.386369

    Block 491 cell size :
        i : 0.07925 .. 0.07925
        j : 0.0250052 .. 0.0250052
        k : 0.449275 .. 0.449275

    Block 492 cell size :
        i : 0.07925 .. 0.07925
        j : 0.0252499 .. 0.0252499
        k : 0.384377 .. 0.384377

    Block 493 cell size :
        i : 0.0760862 .. 0.0760862
        j : 0.0249894 .. 0.0249894
        k : 0.323793 .. 0.323793

    Block 494 cell size :
        i : 0.0356347 .. 0.0356347
        j : 0.034504 .. 0.034504
        k : 0.386369 .. 0.386369

    Block 495 cell size :
        i : 0.07925 .. 0.07925
        j : 0.02475 .. 0.02475
        k : 0.386369 .. 0.386369

    Block 496 cell size :
        i : 0.07925 .. 0.07925
        j : 0.0250052 .. 0.0250052
        k : 0.449275 .. 0.449275

    Block 497 cell size :
        i : 0.07925 .. 0.07925
        j : 0.0252499 .. 0.0252499
        k : 0.384377 .. 0.384377

    Block 498 cell size :
        i : 0.0760862 .. 0.0760862
        j : 0.0249894 .. 0.0249894
        k : 0.323793 .. 0.323793

    Block 499 cell size :
        i : 0.0356347 .. 0.0356347
        j : 0.034504 .. 0.034504
        k : 0.386369 .. 0.386369

    Block 500 cell size :
        i : 0.07925 .. 0.07925
        j : 0.02475 .. 0.02475
        k : 0.386369 .. 0.386369

    Block 501 cell size :
        i : 0.07925 .. 0.07925
        j : 0.0250052 .. 0.0250052
        k : 0.449275 .. 0.449275

    Block 502 cell size :
        i : 0.07925 .. 0.07925
        j : 0.0252499 .. 0.0252499
        k : 0.384377 .. 0.384377

    Block 503 cell size :
        i : 0.0760862 .. 0.0760862
        j : 0.0249894 .. 0.0249894
        k : 0.323793 .. 0.323793

    Block 504 cell size :
        i : 0.0356347 .. 0.0356347
        j : 0.034504 .. 0.034504
        k : 0.386369 .. 0.386369

    Block 505 cell size :
        i : 0.07925 .. 0.07925
        j : 0.02475 .. 0.02475
        k : 0.386369 .. 0.386369

    Block 506 cell size :
        i : 0.07925 .. 0.07925
        j : 0.0250052 .. 0.0250052
        k : 0.449275 .. 0.449275

    Block 507 cell size :
        i : 0.07925 .. 0.07925
        j : 0.0252499 .. 0.0252499
        k : 0.384377 .. 0.384377

    Block 508 cell size :
        i : 0.0760862 .. 0.0760862
        j : 0.0249894 .. 0.0249894
        k : 0.323793 .. 0.323793

    Block 509 cell size :
        i : 0.0356347 .. 0.0356347
        j : 0.034504 .. 0.034504
        k : 0.386369 .. 0.386369

    Block 510 cell size :
        i : 0.07925 .. 0.07925
        j : 0.02475 .. 0.02475
        k : 0.386369 .. 0.386369

    Block 511 cell size :
        i : 0.07925 .. 0.07925
        j : 0.0250052 .. 0.0250052
        k : 0.449275 .. 0.449275

    Block 512 cell size :
        i : 0.07925 .. 0.07925
        j : 0.0252499 .. 0.0252499
        k : 0.384377 .. 0.384377

    Block 513 cell size :
        i : 0.0760862 .. 0.0760862
        j : 0.0249894 .. 0.0249894
        k : 0.323793 .. 0.323793

    Block 514 cell size :
        i : 0.0356347 .. 0.0356347
        j : 0.034504 .. 0.034504
        k : 0.386369 .. 0.386369

    Block 515 cell size :
        i : 0.07925 .. 0.07925
        j : 0.02475 .. 0.02475
        k : 0.386369 .. 0.386369

    Block 516 cell size :
        i : 0.07925 .. 0.07925
        j : 0.0250052 .. 0.0250052
        k : 0.449275 .. 0.449275

    Block 517 cell size :
        i : 0.07925 .. 0.07925
        j : 0.0252499 .. 0.0252499
        k : 0.384377 .. 0.384377

    Block 518 cell size :
        i : 0.0760862 .. 0.0760862
        j : 0.0249894 .. 0.0249894
        k : 0.323793 .. 0.323793

    Block 519 cell size :
        i : 0.0356347 .. 0.0356347
        j : 0.034504 .. 0.034504
        k : 0.386369 .. 0.386369

    Block 520 cell size :
        i : 0.07925 .. 0.07925
        j : 0.02475 .. 0.02475
        k : 0.386369 .. 0.386369

    Block 521 cell size :
        i : 0.07925 .. 0.07925
        j : 0.0250052 .. 0.0250052
        k : 0.449275 .. 0.449275

    Block 522 cell size :
        i : 0.07925 .. 0.07925
        j : 0.0252499 .. 0.0252499
        k : 0.384377 .. 0.384377

    Block 523 cell size :
        i : 0.0760862 .. 0.0760862
        j : 0.0249894 .. 0.0249894
        k : 0.323793 .. 0.323793

    Block 524 cell size :
        i : 0.0356347 .. 0.0356347
        j : 0.034504 .. 0.034504
        k : 0.386369 .. 0.386369

    Block 525 cell size :
        i : 0.07925 .. 0.07925
        j : 0.02475 .. 0.02475
        k : 0.386369 .. 0.386369

    Block 526 cell size :
        i : 0.07925 .. 0.07925
        j : 0.0250052 .. 0.0250052
        k : 0.449275 .. 0.449275

    Block 527 cell size :
        i : 0.07925 .. 0.07925
        j : 0.0252499 .. 0.0252499
        k : 0.384377 .. 0.384377

    Block 528 cell size :
        i : 0.0760862 .. 0.0760862
        j : 0.0249894 .. 0.0249894
        k : 0.323793 .. 0.323793

    Block 529 cell size :
        i : 0.0356347 .. 0.0356347
        j : 0.034504 .. 0.034504
        k : 0.386369 .. 0.386369

    Block 530 cell size :
        i : 0.07925 .. 0.07925
        j : 0.02475 .. 0.02475
        k : 0.386369 .. 0.386369

    Block 531 cell size :
        i : 0.07925 .. 0.07925
        j : 0.0250052 .. 0.0250052
        k : 0.449275 .. 0.449275

    Block 532 cell size :
        i : 0.07925 .. 0.07925
        j : 0.0252499 .. 0.0252499
        k : 0.384377 .. 0.384377

    Block 533 cell size :
        i : 0.0760862 .. 0.0760862
        j : 0.0249894 .. 0.0249894
        k : 0.323793 .. 0.323793

    Block 534 cell size :
        i : 0.0356347 .. 0.0356347
        j : 0.034504 .. 0.034504
        k : 0.386369 .. 0.386369

    Block 535 cell size :
        i : 0.07925 .. 0.07925
        j : 0.02475 .. 0.02475
        k : 0.386369 .. 0.386369

    Block 536 cell size :
        i : 0.07925 .. 0.07925
        j : 0.0250052 .. 0.0250052
        k : 0.449275 .. 0.449275

    Block 537 cell size :
        i : 0.07925 .. 0.07925
        j : 0.0252499 .. 0.0252499
        k : 0.384377 .. 0.384377

    Block 538 cell size :
        i : 0.0760862 .. 0.0760862
        j : 0.0249894 .. 0.0249894
        k : 0.323793 .. 0.323793

    Block 539 cell size :
        i : 0.0356347 .. 0.0356347
        j : 0.034504 .. 0.034504
        k : 0.386369 .. 0.386369

    Block 540 cell size :
        i : 0.07925 .. 0.07925
        j : 0.02475 .. 0.02475
        k : 0.386369 .. 0.386369

    Block 541 cell size :
        i : 0.07925 .. 0.07925
        j : 0.0250052 .. 0.0250052
        k : 0.449275 .. 0.449275

    Block 542 cell size :
        i : 0.07925 .. 0.07925
        j : 0.0252499 .. 0.0252499
        k : 0.384377 .. 0.384377

    Block 543 cell size :
        i : 0.0760862 .. 0.0760862
        j : 0.0249894 .. 0.0249894
        k : 0.323793 .. 0.323793

    Block 544 cell size :
        i : 0.0356347 .. 0.0356347
        j : 0.034504 .. 0.034504
        k : 0.386369 .. 0.386369

    Block 545 cell size :
        i : 0.07925 .. 0.07925
        j : 0.02475 .. 0.02475
        k : 0.386369 .. 0.386369

    Block 546 cell size :
        i : 0.07925 .. 0.07925
        j : 0.0250052 .. 0.0250052
        k : 0.449275 .. 0.449275

    Block 547 cell size :
        i : 0.07925 .. 0.07925
        j : 0.0252499 .. 0.0252499
        k : 0.384377 .. 0.384377

    Block 548 cell size :
        i : 0.0760862 .. 0.0760862
        j : 0.0249894 .. 0.0249894
        k : 0.323793 .. 0.323793

    Block 549 cell size :
        i : 0.0356347 .. 0.0356347
        j : 0.034504 .. 0.034504
        k : 0.386369 .. 0.386369

    Block 550 cell size :
        i : 0.07925 .. 0.07925
        j : 0.02475 .. 0.02475
        k : 0.386369 .. 0.386369

    Block 551 cell size :
        i : 0.07925 .. 0.07925
        j : 0.0250052 .. 0.0250052
        k : 0.449275 .. 0.449275

    Block 552 cell size :
        i : 0.07925 .. 0.07925
        j : 0.0252499 .. 0.0252499
        k : 0.384377 .. 0.384377

    Block 553 cell size :
        i : 0.0760862 .. 0.0760862
        j : 0.0249894 .. 0.0249894
        k : 0.323793 .. 0.323793

    Block 554 cell size :
        i : 0.0356347 .. 0.0356347
        j : 0.034504 .. 0.034504
        k : 0.386369 .. 0.386369

    Block 555 cell size :
        i : 0.07925 .. 0.07925
        j : 0.02475 .. 0.02475
        k : 0.395955 .. 0.395955

    Block 556 cell size :
        i : 0.07925 .. 0.07925
        j : 0.0250052 .. 0.0250052
        k : 0.331762 .. 0.331762

    Block 557 cell size :
        i : 0.07925 .. 0.07925
        j : 0.0252499 .. 0.0252499
        k : 0.397998 .. 0.397998

    Block 558 cell size :
        i : 0.0760862 .. 0.0760862
        j : 0.0249894 .. 0.0249894
        k : 0.460356 .. 0.460356

    Block 559 cell size :
        i : 0.0356347 .. 0.0356347
        j : 0.034504 .. 0.034504
        k : 0.395955 .. 0.395955

    Block 560 cell size :
        i : 0.07925 .. 0.07925
        j : 0.02475 .. 0.02475
        k : 0.395955 .. 0.395955

    Block 561 cell size :
        i : 0.07925 .. 0.07925
        j : 0.0250052 .. 0.0250052
        k : 0.331762 .. 0.331762

    Block 562 cell size :
        i : 0.07925 .. 0.07925
        j : 0.0252499 .. 0.0252499
        k : 0.397998 .. 0.397998

    Block 563 cell size :
        i : 0.0760862 .. 0.0760862
        j : 0.0249894 .. 0.0249894
        k : 0.460356 .. 0.460356

    Block 564 cell size :
        i : 0.0356347 .. 0.0356347
        j : 0.0345039 .. 0.0345039
        k : 0.395955 .. 0.395955

    Block 565 cell size :
        i : 0.07925 .. 0.07925
        j : 0.02475 .. 0.02475
        k : 0.395955 .. 0.395955

    Block 566 cell size :
        i : 0.07925 .. 0.07925
        j : 0.0250052 .. 0.0250052
        k : 0.331762 .. 0.331762

    Block 567 cell size :
        i : 0.07925 .. 0.07925
        j : 0.0252499 .. 0.0252499
        k : 0.397998 .. 0.397998

    Block 568 cell size :
        i : 0.0760862 .. 0.0760862
        j : 0.0249894 .. 0.0249894
        k : 0.460356 .. 0.460356

    Block 569 cell size :
        i : 0.0356347 .. 0.0356347
        j : 0.034504 .. 0.034504
        k : 0.395955 .. 0.395955

    Block 570 cell size :
        i : 0.07925 .. 0.07925
        j : 0.02475 .. 0.02475
        k : 0.395955 .. 0.395955

    Block 571 cell size :
        i : 0.07925 .. 0.07925
        j : 0.0250052 .. 0.0250052
        k : 0.331762 .. 0.331762

    Block 572 cell size :
        i : 0.07925 .. 0.07925
        j : 0.0252499 .. 0.0252499
        k : 0.397998 .. 0.397998

    Block 573 cell size :
        i : 0.0760862 .. 0.0760862
        j : 0.0249894 .. 0.0249894
        k : 0.460356 .. 0.460356

    Block 574 cell size :
        i : 0.0356347 .. 0.0356347
        j : 0.034504 .. 0.034504
        k : 0.395955 .. 0.395955

    Block 575 cell size :
        i : 0.07925 .. 0.07925
        j : 0.02475 .. 0.02475
        k : 0.395955 .. 0.395955

    Block 576 cell size :
        i : 0.07925 .. 0.07925
        j : 0.0250052 .. 0.0250052
        k : 0.331762 .. 0.331762

    Block 577 cell size :
        i : 0.07925 .. 0.07925
        j : 0.0252499 .. 0.0252499
        k : 0.397998 .. 0.397998

    Block 578 cell size :
        i : 0.0760862 .. 0.0760862
        j : 0.0249894 .. 0.0249894
        k : 0.460356 .. 0.460356

    Block 579 cell size :
        i : 0.0356347 .. 0.0356347
        j : 0.034504 .. 0.034504
        k : 0.395955 .. 0.395955

    Block 580 cell size :
        i : 0.07925 .. 0.07925
        j : 0.02475 .. 0.02475
        k : 0.395955 .. 0.395955

    Block 581 cell size :
        i : 0.07925 .. 0.07925
        j : 0.0250052 .. 0.0250052
        k : 0.331762 .. 0.331762

    Block 582 cell size :
        i : 0.07925 .. 0.07925
        j : 0.0252499 .. 0.0252499
        k : 0.397998 .. 0.397998

    Block 583 cell size :
        i : 0.0760862 .. 0.0760862
        j : 0.0249894 .. 0.0249894
        k : 0.460356 .. 0.460356

    Block 584 cell size :
        i : 0.0356347 .. 0.0356347
        j : 0.034504 .. 0.034504
        k : 0.395955 .. 0.395955

    Block 585 cell size :
        i : 0.07925 .. 0.07925
        j : 0.02475 .. 0.02475
        k : 0.395955 .. 0.395955

    Block 586 cell size :
        i : 0.07925 .. 0.07925
        j : 0.0250052 .. 0.0250052
        k : 0.331762 .. 0.331762

    Block 587 cell size :
        i : 0.07925 .. 0.07925
        j : 0.0252499 .. 0.0252499
        k : 0.397998 .. 0.397998

    Block 588 cell size :
        i : 0.0760862 .. 0.0760862
        j : 0.0249894 .. 0.0249894
        k : 0.460356 .. 0.460356

    Block 589 cell size :
        i : 0.0356347 .. 0.0356347
        j : 0.034504 .. 0.034504
        k : 0.395955 .. 0.395955

    Block 590 cell size :
        i : 0.07925 .. 0.07925
        j : 0.02475 .. 0.02475
        k : 0.395955 .. 0.395955

    Block 591 cell size :
        i : 0.07925 .. 0.07925
        j : 0.0250052 .. 0.0250052
        k : 0.331762 .. 0.331762

    Block 592 cell size :
        i : 0.07925 .. 0.07925
        j : 0.0252499 .. 0.0252499
        k : 0.397998 .. 0.397998

    Block 593 cell size :
        i : 0.0760862 .. 0.0760862
        j : 0.0249894 .. 0.0249894
        k : 0.460356 .. 0.460356

    Block 594 cell size :
        i : 0.0356347 .. 0.0356347
        j : 0.034504 .. 0.034504
        k : 0.395955 .. 0.395955

    Block 595 cell size :
        i : 0.07925 .. 0.07925
        j : 0.02475 .. 0.02475
        k : 0.395955 .. 0.395955

    Block 596 cell size :
        i : 0.07925 .. 0.07925
        j : 0.0250052 .. 0.0250052
        k : 0.331762 .. 0.331762

    Block 597 cell size :
        i : 0.07925 .. 0.07925
        j : 0.0252499 .. 0.0252499
        k : 0.397998 .. 0.397998

    Block 598 cell size :
        i : 0.0760862 .. 0.0760862
        j : 0.0249894 .. 0.0249894
        k : 0.460356 .. 0.460356

    Block 599 cell size :
        i : 0.0356347 .. 0.0356347
        j : 0.034504 .. 0.034504
        k : 0.395955 .. 0.395955

    Block 600 cell size :
        i : 0.07925 .. 0.07925
        j : 0.02475 .. 0.02475
        k : 0.395955 .. 0.395955

    Block 601 cell size :
        i : 0.07925 .. 0.07925
        j : 0.0250052 .. 0.0250052
        k : 0.331762 .. 0.331762

    Block 602 cell size :
        i : 0.07925 .. 0.07925
        j : 0.0252499 .. 0.0252499
        k : 0.397998 .. 0.397998

    Block 603 cell size :
        i : 0.0760862 .. 0.0760862
        j : 0.0249894 .. 0.0249894
        k : 0.460356 .. 0.460356

    Block 604 cell size :
        i : 0.0356347 .. 0.0356347
        j : 0.0345039 .. 0.0345039
        k : 0.395955 .. 0.395955

    Block 605 cell size :
        i : 0.07925 .. 0.07925
        j : 0.02475 .. 0.02475
        k : 0.395955 .. 0.395955

    Block 606 cell size :
        i : 0.07925 .. 0.07925
        j : 0.0250052 .. 0.0250052
        k : 0.331762 .. 0.331762

    Block 607 cell size :
        i : 0.07925 .. 0.07925
        j : 0.0252499 .. 0.0252499
        k : 0.397998 .. 0.397998

    Block 608 cell size :
        i : 0.0760862 .. 0.0760862
        j : 0.0249894 .. 0.0249894
        k : 0.460356 .. 0.460356

    Block 609 cell size :
        i : 0.0356347 .. 0.0356347
        j : 0.034504 .. 0.034504
        k : 0.395955 .. 0.395955

    Block 610 cell size :
        i : 0.07925 .. 0.07925
        j : 0.02475 .. 0.02475
        k : 0.395955 .. 0.395955

    Block 611 cell size :
        i : 0.07925 .. 0.07925
        j : 0.0250052 .. 0.0250052
        k : 0.331762 .. 0.331762

    Block 612 cell size :
        i : 0.07925 .. 0.07925
        j : 0.0252499 .. 0.0252499
        k : 0.397998 .. 0.397998

    Block 613 cell size :
        i : 0.0760862 .. 0.0760862
        j : 0.0249894 .. 0.0249894
        k : 0.460356 .. 0.460356

    Block 614 cell size :
        i : 0.0356347 .. 0.0356347
        j : 0.0345039 .. 0.0345039
        k : 0.395955 .. 0.395955

    Block 615 cell size :
        i : 0.07925 .. 0.07925
        j : 0.02475 .. 0.02475
        k : 0.395955 .. 0.395955

    Block 616 cell size :
        i : 0.07925 .. 0.07925
        j : 0.0250052 .. 0.0250052
        k : 0.331762 .. 0.331762

    Block 617 cell size :
        i : 0.07925 .. 0.07925
        j : 0.0252499 .. 0.0252499
        k : 0.397998 .. 0.397998

    Block 618 cell size :
        i : 0.0760862 .. 0.0760862
        j : 0.0249894 .. 0.0249894
        k : 0.460356 .. 0.460356

    Block 619 cell size :
        i : 0.0356347 .. 0.0356347
        j : 0.034504 .. 0.034504
        k : 0.395955 .. 0.395955

    Block 620 cell size :
[...]

    Block 635 cell size :
        i : 0.07925 .. 0.07925
        j : 0.02475 .. 0.02475
        k : 0.395955 .. 0.395955

    Block 636 cell size :
        i : 0.07925 .. 0.07925
        j : 0.0250052 .. 0.0250052
        k : 0.331762 .. 0.331762

    Block 637 cell size :
        i : 0.07925 .. 0.07925
        j : 0.0252499 .. 0.0252499
        k : 0.397998 .. 0.397998

    Block 638 cell size :
        i : 0.0760862 .. 0.0760862
        j : 0.0249894 .. 0.0249894
        k : 0.460356 .. 0.460356

    Block 639 cell size :
        i : 0.0356347 .. 0.0356347
        j : 0.034504 .. 0.034504
        k : 0.395955 .. 0.395955

    Block 640 cell size :
        i : 0.07925 .. 0.07925
        j : 0.02475 .. 0.02475
        k : 0.395955 .. 0.395955

    Block 641 cell size :
        i : 0.07925 .. 0.07925
        j : 0.0250052 .. 0.0250052
        k : 0.331762 .. 0.331762

    Block 642 cell size :
        i : 0.07925 .. 0.07925
        j : 0.0252499 .. 0.0252499
        k : 0.397998 .. 0.397998

    Block 643 cell size :
        i : 0.0760862 .. 0.0760862
        j : 0.0249894 .. 0.0249894
        k : 0.460356 .. 0.460356

    Block 644 cell size :
        i : 0.0356347 .. 0.0356347
        j : 0.034504 .. 0.034504
        k : 0.395955 .. 0.395955

    Block 645 cell size :
        i : 0.07925 .. 0.07925
        j : 0.02475 .. 0.02475
        k : 0.395955 .. 0.395955

    Block 646 cell size :
        i : 0.07925 .. 0.07925
        j : 0.0250052 .. 0.0250052
        k : 0.331762 .. 0.331762

    Block 647 cell size :
        i : 0.07925 .. 0.07925
        j : 0.0252499 .. 0.0252499
        k : 0.397998 .. 0.397998

    Block 648 cell size :
        i : 0.0760862 .. 0.0760862
        j : 0.0249894 .. 0.0249894
        k : 0.460356 .. 0.460356

    Block 649 cell size :
        i : 0.0356347 .. 0.0356347
        j : 0.034504 .. 0.034504
        k : 0.395955 .. 0.395955

    Block 650 cell size :
        i : 0.07925 .. 0.07925
        j : 0.02475 .. 0.02475
        k : 0.395955 .. 0.395955

    Block 651 cell size :
        i : 0.07925 .. 0.07925
        j : 0.0250052 .. 0.0250052
        k : 0.331762 .. 0.331762

    Block 652 cell size :
        i : 0.07925 .. 0.07925
        j : 0.0252499 .. 0.0252499
        k : 0.397998 .. 0.397998

    Block 653 cell size :
        i : 0.0760862 .. 0.0760862
        j : 0.0249894 .. 0.0249894
        k : 0.460356 .. 0.460356

    Block 654 cell size :
        i : 0.0356347 .. 0.0356347
        j : 0.034504 .. 0.034504
        k : 0.395955 .. 0.395955

    Block 655 cell size :
        i : 0.07925 .. 0.07925
        j : 0.02475 .. 0.02475
        k : 0.395955 .. 0.395955

    Block 656 cell size :
        i : 0.07925 .. 0.07925
        j : 0.0250052 .. 0.0250052
        k : 0.331762 .. 0.331762

    Block 657 cell size :
        i : 0.07925 .. 0.07925
        j : 0.0252499 .. 0.0252499
        k : 0.397998 .. 0.397998

    Block 658 cell size :
        i : 0.0760862 .. 0.0760862
        j : 0.0249894 .. 0.0249894
        k : 0.460356 .. 0.460356

    Block 659 cell size :
        i : 0.0356347 .. 0.0356347
        j : 0.034504 .. 0.034504
        k : 0.395955 .. 0.395955

    Block 660 cell size :
        i : 0.07925 .. 0.07925
        j : 0.02475 .. 0.02475
        k : 0.395955 .. 0.395955

    Block 661 cell size :
        i : 0.07925 .. 0.07925
        j : 0.0250052 .. 0.0250052
        k : 0.331762 .. 0.331762

    Block 662 cell size :
        i : 0.07925 .. 0.07925
        j : 0.0252499 .. 0.0252499
        k : 0.397998 .. 0.397998

    Block 663 cell size :
        i : 0.0760862 .. 0.0760862
        j : 0.0249894 .. 0.0249894
        k : 0.460356 .. 0.460356

    Block 664 cell size :
        i : 0.0356347 .. 0.0356347
        j : 0.034504 .. 0.034504
        k : 0.395955 .. 0.395955

    Block 665 cell size :
        i : 0.07925 .. 0.07925
        j : 0.02475 .. 0.02475
        k : 0.395955 .. 0.395955

    Block 666 cell size :
        i : 0.07925 .. 0.07925
        j : 0.0250052 .. 0.0250052
        k : 0.331762 .. 0.331762

    Block 667 cell size :
        i : 0.07925 .. 0.07925
        j : 0.0252499 .. 0.0252499
        k : 0.397998 .. 0.397998

    Block 668 cell size :
        i : 0.0760862 .. 0.0760862
        j : 0.0249894 .. 0.0249894
        k : 0.460356 .. 0.460356

    Block 669 cell size :
        i : 0.0356347 .. 0.0356347
        j : 0.034504 .. 0.034504
        k : 0.395955 .. 0.395955

    Block 670 cell size :
        i : 0.07925 .. 0.07925
        j : 0.02475 .. 0.02475
        k : 0.395955 .. 0.395955

    Block 671 cell size :
        i : 0.07925 .. 0.07925
        j : 0.0250052 .. 0.0250052
        k : 0.331762 .. 0.331762

    Block 672 cell size :
        i : 0.07925 .. 0.07925
        j : 0.0252499 .. 0.0252499
        k : 0.397998 .. 0.397998

    Block 673 cell size :
        i : 0.0760862 .. 0.0760862
        j : 0.0249894 .. 0.0249894
        k : 0.460356 .. 0.460356

    Block 674 cell size :
        i : 0.0356347 .. 0.0356347
        j : 0.034504 .. 0.034504
        k : 0.395955 .. 0.395955

    Block 675 cell size :
        i : 0.07925 .. 0.07925
        j : 0.02475 .. 0.02475
        k : 0.395955 .. 0.395955

    Block 676 cell size :
        i : 0.07925 .. 0.07925
        j : 0.0250052 .. 0.0250052
        k : 0.331762 .. 0.331762

    Block 677 cell size :
        i : 0.07925 .. 0.07925
        j : 0.0252499 .. 0.0252499
        k : 0.397998 .. 0.397998

    Block 678 cell size :
        i : 0.0760862 .. 0.0760862
        j : 0.0249894 .. 0.0249894
        k : 0.460356 .. 0.460356

    Block 679 cell size :
        i : 0.0356347 .. 0.0356347
        j : 0.034504 .. 0.034504
        k : 0.395955 .. 0.395955

    Block 680 cell size :
        i : 0.07925 .. 0.07925
        j : 0.02475 .. 0.02475
        k : 0.395955 .. 0.395955

    Block 681 cell size :
        i : 0.07925 .. 0.07925
        j : 0.0250052 .. 0.0250052
        k : 0.331762 .. 0.331762

    Block 682 cell size :
        i : 0.07925 .. 0.07925
        j : 0.0252499 .. 0.0252499
        k : 0.397998 .. 0.397998

    Block 683 cell size :
        i : 0.0760862 .. 0.0760862
        j : 0.0249894 .. 0.0249894
        k : 0.460356 .. 0.460356

    Block 684 cell size :
        i : 0.0356347 .. 0.0356347
        j : 0.034504 .. 0.034504
        k : 0.395955 .. 0.395955

    Block 685 cell size :
        i : 0.07925 .. 0.07925
        j : 0.02475 .. 0.02475
        k : 0.395955 .. 0.395955

    Block 686 cell size :
        i : 0.07925 .. 0.07925
        j : 0.0250052 .. 0.0250052
        k : 0.331762 .. 0.331762

    Block 687 cell size :
        i : 0.07925 .. 0.07925
        j : 0.0252499 .. 0.0252499
        k : 0.397998 .. 0.397998

    Block 688 cell size :
        i : 0.0760862 .. 0.0760862
        j : 0.0249894 .. 0.0249894
        k : 0.460356 .. 0.460356

    Block 689 cell size :
        i : 0.0356347 .. 0.0356347
        j : 0.034504 .. 0.034504
        k : 0.395955 .. 0.395955

    Block 690 cell size :
        i : 0.07925 .. 0.07925
        j : 0.02475 .. 0.02475
        k : 0.395955 .. 0.395955

    Block 691 cell size :
        i : 0.07925 .. 0.07925
        j : 0.0250052 .. 0.0250052
        k : 0.331762 .. 0.331762

    Block 692 cell size :
        i : 0.07925 .. 0.07925
        j : 0.0252499 .. 0.0252499
        k : 0.397998 .. 0.397998

    Block 693 cell size :
        i : 0.0760862 .. 0.0760862
        j : 0.0249894 .. 0.0249894
        k : 0.460356 .. 0.460356

    Block 694 cell size :
        i : 0.0356347 .. 0.0356347
        j : 0.034504 .. 0.034504
        k : 0.395955 .. 0.395955

    Block 695 cell size :
        i : 0.07925 .. 0.07925
        j : 0.02475 .. 0.02475
        k : 0.395955 .. 0.395955

    Block 696 cell size :
        i : 0.07925 .. 0.07925
        j : 0.0250052 .. 0.0250052
        k : 0.331762 .. 0.331762

    Block 697 cell size :
        i : 0.07925 .. 0.07925
        j : 0.0252499 .. 0.0252499
        k : 0.397998 .. 0.397998

    Block 698 cell size :
        i : 0.0760862 .. 0.0760862
        j : 0.0249894 .. 0.0249894
        k : 0.460356 .. 0.460356

    Block 699 cell size :
        i : 0.0356347 .. 0.0356347
        j : 0.034504 .. 0.034504
        k : 0.395955 .. 0.395955

    Block 700 cell size :
        i : 0.07925 .. 0.07925
        j : 0.02475 .. 0.02475
        k : 0.395955 .. 0.395955

    Block 701 cell size :
        i : 0.07925 .. 0.07925
        j : 0.0250052 .. 0.0250052
        k : 0.331762 .. 0.331762

    Block 702 cell size :
        i : 0.07925 .. 0.07925
        j : 0.0252499 .. 0.0252499
        k : 0.397998 .. 0.397998

    Block 703 cell size :
        i : 0.0760862 .. 0.0760862
        j : 0.0249894 .. 0.0249894
        k : 0.460356 .. 0.460356

    Block 704 cell size :
        i : 0.0356347 .. 0.0356347
        j : 0.034504 .. 0.034504
        k : 0.395955 .. 0.395955

    Block 705 cell size :
        i : 0.07925 .. 0.07925
        j : 0.02475 .. 0.02475
        k : 0.395955 .. 0.395955

    Block 706 cell size :
        i : 0.07925 .. 0.07925
        j : 0.0250052 .. 0.0250052
        k : 0.331762 .. 0.331762

    Block 707 cell size :
        i : 0.07925 .. 0.07925
        j : 0.0252499 .. 0.0252499
        k : 0.397998 .. 0.397998

    Block 708 cell size :
        i : 0.0760862 .. 0.0760862
        j : 0.0249894 .. 0.0249894
        k : 0.460356 .. 0.460356

    Block 709 cell size :
        i : 0.0356347 .. 0.0356347
        j : 0.034504 .. 0.034504
        k : 0.395955 .. 0.395955

    Block 710 cell size :
        i : 0.07925 .. 0.07925
        j : 0.02475 .. 0.02475
        k : 0.395955 .. 0.395955

    Block 711 cell size :
        i : 0.07925 .. 0.07925
        j : 0.0250052 .. 0.0250052
        k : 0.331762 .. 0.331762

    Block 712 cell size :
        i : 0.07925 .. 0.07925
        j : 0.0252499 .. 0.0252499
        k : 0.397998 .. 0.397998

    Block 713 cell size :
        i : 0.0760862 .. 0.0760862
        j : 0.0249894 .. 0.0249894
        k : 0.460356 .. 0.460356

    Block 714 cell size :
        i : 0.0356347 .. 0.0356347
        j : 0.034504 .. 0.034504
        k : 0.395955 .. 0.395955

    Block 715 cell size :
        i : 0.07925 .. 0.07925
        j : 0.02475 .. 0.02475
        k : 0.395955 .. 0.395955

    Block 716 cell size :
        i : 0.07925 .. 0.07925
        j : 0.0250052 .. 0.0250052
        k : 0.331762 .. 0.331762

    Block 717 cell size :
        i : 0.07925 .. 0.07925
        j : 0.0252499 .. 0.0252499
        k : 0.397998 .. 0.397998

    Block 718 cell size :
        i : 0.0760862 .. 0.0760862
        j : 0.0249894 .. 0.0249894
        k : 0.460356 .. 0.460356

    Block 719 cell size :
        i : 0.0356347 .. 0.0356347
        j : 0.034504 .. 0.034504
        k : 0.395955 .. 0.395955

    Block 720 cell size :
        i : 0.07925 .. 0.07925
        j : 0.02475 .. 0.02475
        k : 0.395955 .. 0.395955

    Block 721 cell size :
        i : 0.07925 .. 0.07925
        j : 0.0250052 .. 0.0250052
        k : 0.331762 .. 0.331762

    Block 722 cell size :
        i : 0.07925 .. 0.07925
        j : 0.0252499 .. 0.0252499
        k : 0.397998 .. 0.397998

    Block 723 cell size :
        i : 0.0760862 .. 0.0760862
        j : 0.0249894 .. 0.0249894
        k : 0.460356 .. 0.460356

    Block 724 cell size :
        i : 0.0356347 .. 0.0356347
        j : 0.034504 .. 0.034504
        k : 0.395955 .. 0.395955

    Block 725 cell size :
        i : 0.07925 .. 0.07925
        j : 0.02475 .. 0.02475
        k : 0.395955 .. 0.395955

    Block 726 cell size :
        i : 0.07925 .. 0.07925
        j : 0.0250052 .. 0.0250052
        k : 0.331762 .. 0.331762

    Block 727 cell size :
        i : 0.07925 .. 0.07925
        j : 0.0252499 .. 0.0252499
        k : 0.397998 .. 0.397998

    Block 728 cell size :
        i : 0.0760862 .. 0.0760862
        j : 0.0249894 .. 0.0249894
        k : 0.460356 .. 0.460356

    Block 729 cell size :
        i : 0.0356347 .. 0.0356347
        j : 0.034504 .. 0.034504
        k : 0.395955 .. 0.395955

    Block 730 cell size :
        i : 0.07925 .. 0.07925
        j : 0.02475 .. 0.02475
        k : 0.395955 .. 0.395955

    Block 731 cell size :
        i : 0.07925 .. 0.07925
        j : 0.0250052 .. 0.0250052
        k : 0.331762 .. 0.331762

    Block 732 cell size :
        i : 0.07925 .. 0.07925
        j : 0.0252499 .. 0.0252499
        k : 0.397998 .. 0.397998

    Block 733 cell size :
        i : 0.0760862 .. 0.0760862
        j : 0.0249894 .. 0.0249894
        k : 0.460356 .. 0.460356

    Block 734 cell size :
        i : 0.0356347 .. 0.0356347
        j : 0.034504 .. 0.034504
        k : 0.395955 .. 0.395955

    Block 735 cell size :
        i : 0.07925 .. 0.07925
        j : 0.02475 .. 0.02475
        k : 0.395955 .. 0.395955

    Block 736 cell size :
        i : 0.07925 .. 0.07925
        j : 0.0250052 .. 0.0250052
        k : 0.331762 .. 0.331762

    Block 737 cell size :
        i : 0.07925 .. 0.07925
        j : 0.0252499 .. 0.0252499
        k : 0.397998 .. 0.397998

    Block 738 cell size :
        i : 0.0760862 .. 0.0760862
        j : 0.0249894 .. 0.0249894
        k : 0.460356 .. 0.460356

    Block 739 cell size :
        i : 0.0356347 .. 0.0356347
        j : 0.034504 .. 0.034504
        k : 0.395955 .. 0.395955

    Block 740 cell size :
        i : 0.07925 .. 0.07925
        j : 0.02475 .. 0.02475
        k : 0.395955 .. 0.395955

    Block 741 cell size :
        i : 0.07925 .. 0.07925
        j : 0.0250052 .. 0.0250052
        k : 0.331762 .. 0.331762

    Block 742 cell size :
        i : 0.07925 .. 0.07925
        j : 0.0252499 .. 0.0252499
        k : 0.397998 .. 0.397998

    Block 743 cell size :
        i : 0.0760862 .. 0.0760862
        j : 0.0249894 .. 0.0249894
        k : 0.460356 .. 0.460356

    Block 744 cell size :
        i : 0.0356347 .. 0.0356347
        j : 0.0345039 .. 0.0345039
        k : 0.395955 .. 0.395955

    Block 745 cell size :
        i : 0.07925 .. 0.07925
        j : 0.02475 .. 0.02475
        k : 0.395955 .. 0.395955

    Block 746 cell size :
        i : 0.07925 .. 0.07925
        j : 0.0250052 .. 0.0250052
        k : 0.331762 .. 0.331762

    Block 747 cell size :
        i : 0.07925 .. 0.07925
        j : 0.0252499 .. 0.0252499
        k : 0.397998 .. 0.397998

    Block 748 cell size :
        i : 0.0760862 .. 0.0760862
        j : 0.0249894 .. 0.0249894
        k : 0.460356 .. 0.460356

    Block 749 cell size :
        i : 0.0356347 .. 0.0356347
        j : 0.034504 .. 0.034504
        k : 0.395955 .. 0.395955

    Block 750 cell size :
        i : 0.07925 .. 0.07925
        j : 0.02475 .. 0.02475
        k : 0.395955 .. 0.395955

    Block 751 cell size :
        i : 0.07925 .. 0.07925
        j : 0.0250052 .. 0.0250052
        k : 0.331762 .. 0.331762

    Block 752 cell size :
        i : 0.07925 .. 0.07925
        j : 0.0252499 .. 0.0252499
        k : 0.397998 .. 0.397998

    Block 753 cell size :
        i : 0.0760862 .. 0.0760862
        j : 0.0249894 .. 0.0249894
        k : 0.460356 .. 0.460356

    Block 754 cell size :
        i : 0.0356347 .. 0.0356347
        j : 0.034504 .. 0.034504
        k : 0.395955 .. 0.395955

    Block 755 cell size :
        i : 0.07925 .. 0.07925
        j : 0.02475 .. 0.02475
        k : 0.395955 .. 0.395955

    Block 756 cell size :
        i : 0.07925 .. 0.07925
        j : 0.0250052 .. 0.0250052
        k : 0.331762 .. 0.331762

    Block 757 cell size :
        i : 0.07925 .. 0.07925
        j : 0.0252499 .. 0.0252499
        k : 0.397998 .. 0.397998

    Block 758 cell size :
        i : 0.0760862 .. 0.0760862
        j : 0.0249894 .. 0.0249894
        k : 0.460356 .. 0.460356

    Block 759 cell size :
        i : 0.0356347 .. 0.0356347
        j : 0.034504 .. 0.034504
        k : 0.395955 .. 0.395955

    Block 760 cell size :
        i : 0.07925 .. 0.07925
        j : 0.02475 .. 0.02475
        k : 0.395955 .. 0.395955

    Block 761 cell size :
        i : 0.07925 .. 0.07925
        j : 0.0250052 .. 0.0250052
        k : 0.331762 .. 0.331762

    Block 762 cell size :
        i : 0.07925 .. 0.07925
        j : 0.0252499 .. 0.0252499
        k : 0.397998 .. 0.397998

    Block 763 cell size :
        i : 0.0760862 .. 0.0760862
        j : 0.0249894 .. 0.0249894
        k : 0.460356 .. 0.460356

    Block 764 cell size :
        i : 0.0356347 .. 0.0356347
        j : 0.034504 .. 0.034504
        k : 0.395955 .. 0.395955

    Block 765 cell size :
        i : 0.07925 .. 0.07925
        j : 0.02475 .. 0.02475
        k : 0.395955 .. 0.395955

    Block 766 cell size :
        i : 0.07925 .. 0.07925
        j : 0.0250052 .. 0.0250052
        k : 0.331762 .. 0.331762

    Block 767 cell size :
        i : 0.07925 .. 0.07925
        j : 0.0252499 .. 0.0252499
        k : 0.397998 .. 0.397998

    Block 768 cell size :
        i : 0.0760862 .. 0.0760862
        j : 0.0249894 .. 0.0249894
        k : 0.460356 .. 0.460356

    Block 769 cell size :
        i : 0.0356347 .. 0.0356347
        j : 0.034504 .. 0.034504
        k : 0.395955 .. 0.395955

    Block 770 cell size :
        i : 0.07925 .. 0.07925
        j : 0.02475 .. 0.02475
        k : 0.395955 .. 0.395955

    Block 771 cell size :
        i : 0.07925 .. 0.07925
        j : 0.0250052 .. 0.0250052
        k : 0.331762 .. 0.331762

    Block 772 cell size :
        i : 0.07925 .. 0.07925
        j : 0.0252499 .. 0.0252499
        k : 0.397998 .. 0.397998

    Block 773 cell size :
        i : 0.0760862 .. 0.0760862
        j : 0.0249894 .. 0.0249894
        k : 0.460356 .. 0.460356

    Block 774 cell size :
        i : 0.0356347 .. 0.0356347
        j : 0.034504 .. 0.034504
        k : 0.395955 .. 0.395955

    Block 775 cell size :
        i : 0.07925 .. 0.07925
        j : 0.02475 .. 0.02475
        k : 0.395955 .. 0.395955

    Block 776 cell size :
        i : 0.07925 .. 0.07925
        j : 0.0250052 .. 0.0250052
        k : 0.331762 .. 0.331762

    Block 777 cell size :
        i : 0.07925 .. 0.07925
        j : 0.0252499 .. 0.0252499
        k : 0.397998 .. 0.397998

    Block 778 cell size :
        i : 0.0760862 .. 0.0760862
        j : 0.0249894 .. 0.0249894
        k : 0.460356 .. 0.460356

    Block 779 cell size :
        i : 0.0356347 .. 0.0356347
        j : 0.034504 .. 0.034504
        k : 0.395955 .. 0.395955

    Block 780 cell size :
        i : 0.07925 .. 0.07925
        j : 0.02475 .. 0.02475
        k : 0.395955 .. 0.395955

    Block 781 cell size :
        i : 0.07925 .. 0.07925
        j : 0.0250052 .. 0.0250052
        k : 0.331762 .. 0.331762

    Block 782 cell size :
        i : 0.07925 .. 0.07925
        j : 0.0252499 .. 0.0252499
        k : 0.397998 .. 0.397998

    Block 783 cell size :
        i : 0.0760862 .. 0.0760862
        j : 0.0249894 .. 0.0249894
        k : 0.460356 .. 0.460356

    Block 784 cell size :
        i : 0.0356347 .. 0.0356347
        j : 0.034504 .. 0.034504
        k : 0.395955 .. 0.395955

    Block 785 cell size :
        i : 0.07925 .. 0.07925
        j : 0.02475 .. 0.02475
        k : 5 .. 5

    Block 786 cell size :
        i : 0.07925 .. 0.07925
        j : 0.0250052 .. 0.0250052
        k : 5 .. 5

    Block 787 cell size :
        i : 0.07925 .. 0.07925
        j : 0.0252499 .. 0.0252499
        k : 5 .. 5

    Block 788 cell size :
        i : 0.0760862 .. 0.0760862
        j : 0.0249894 .. 0.0249894
        k : 5 .. 5

    Block 789 cell size :
        i : 0.0356347 .. 0.0356347
        j : 0.034504 .. 0.034504
        k : 5 .. 5


There are no merge patch pairs

Writing polyMesh with 0 cellZones
----------------
Mesh Information
----------------
  boundingBox: (-3.76261 -5 -0.499748) (4.31968 9.44304 10.0493)
  nPoints: 82839
  nCells: 79000
  nFaces: 240660
  nInternalFaces: 233340
----------------
Patches
----------------
  patch 0 (start: 233340 size: 500) name: inlet
  patch 1 (start: 233840 size: 6320) name: walls
  patch 2 (start: 240160 size: 500) name: outlet

End

