/*---------------------------------------------------------------------------*\
| =========                 |                                                 |
| \\      /  F ield         | OpenFOAM: The Open Source CFD Toolbox           |
|  \\    /   O peration     | Version:  2012                                  |
|   \\  /    A nd           | Website:  www.openfoam.com                      |
|    \\/     M anipulation  |                                                 |
\*---------------------------------------------------------------------------*/
Build  : _269d0ffd5c-20210619 OPENFOAM=2012 patch=210618
Arch   : "LSB;label=32;scalar=64"
Exec   : blockMesh
Date   : Jul 12 2022
Time   : 15:13:54
Host   : f485359ed3ce
PID    : 84716
I/O    : uncollated
Case   : /root/pulsed-reactor-optimisation/mesh_generation/coil_basic
nProcs : 1
trapFpe: Floating point exception trapping enabled (FOAM_SIGFPE).
fileModificationChecking : Monitoring run-time modified files using timeStampMaster (fileModificationSkew 5, maxFileModificationPolls 20)
allowSystemOperations : Allowing user-supplied system call operations

// * * * * * * * * * * * * * * * * * * * * * * * * * * * * * * * * * * * * * //
Create time

Creating block mesh from "system/blockMeshDict"
Creating block edges
Creating block faces
Creating topology blocks
Creating topology patches

Creating block mesh topology

Check topology

	Basic statistics
		Number of internal faces : 4142
		Number of boundary faces : 1286
		Number of defined boundary faces : 1286
		Number of undefined boundary faces : 0
	Checking patch -> block consistency

Creating block offsets
Creating merge list (geometric search)...

Creating polyMesh from blockMesh
Creating patches
Creating cells
Creating points with scale 1
    Block 0 cell size :
        i : 0.1585 .. 0.1585
        j : 0.0495 .. 0.0495
        k : 0.893522 .. 0.893522

    Block 1 cell size :
        i : 0.1585 .. 0.1585
        j : 0.0500104 .. 0.0500104
        k : 0.971997 .. 0.971997

    Block 2 cell size :
        i : 0.1585 .. 0.1585
        j : 0.0504998 .. 0.0504998
        k : 0.891033 .. 0.891033

    Block 3 cell size :
        i : 0.152172 .. 0.152172
        j : 0.0499787 .. 0.0499787
        k : 0.815181 .. 0.815181

    Block 4 cell size :
        i : 0.0712694 .. 0.0712694
        j : 0.0690079 .. 0.0690079
        k : 0.893522 .. 0.893522

    Block 5 cell size :
        i : 0.1585 .. 0.1585
        j : 0.0495 .. 0.0495
        k : 0.860308 .. 0.860308

    Block 6 cell size :
        i : 0.1585 .. 0.1585
        j : 0.0500104 .. 0.0500104
        k : 0.938837 .. 0.938837

    Block 7 cell size :
        i : 0.1585 .. 0.1585
        j : 0.0504998 .. 0.0504998
        k : 0.857817 .. 0.857817

    Block 8 cell size :
        i : 0.152172 .. 0.152172
        j : 0.0499787 .. 0.0499787
        k : 0.781904 .. 0.781904

    Block 9 cell size :
        i : 0.0712694 .. 0.0712694
        j : 0.0690079 .. 0.0690079
        k : 0.860308 .. 0.860308

    Block 10 cell size :
        i : 0.1585 .. 0.1585
        j : 0.0495 .. 0.0495
        k : 0.830279 .. 0.830279

    Block 11 cell size :
        i : 0.1585 .. 0.1585
        j : 0.0500104 .. 0.0500104
        k : 0.908827 .. 0.908827

    Block 12 cell size :
        i : 0.1585 .. 0.1585
        j : 0.0504998 .. 0.0504998
        k : 0.827787 .. 0.827787

    Block 13 cell size :
        i : 0.152172 .. 0.152172
        j : 0.0499787 .. 0.0499787
        k : 0.751853 .. 0.751853

    Block 14 cell size :
        i : 0.0712694 .. 0.0712694
        j : 0.0690079 .. 0.0690079
        k : 0.830279 .. 0.830279

    Block 15 cell size :
        i : 0.1585 .. 0.1585
        j : 0.0495 .. 0.0495
        k : 0.803791 .. 0.803791

    Block 16 cell size :
        i : 0.1585 .. 0.1585
        j : 0.0500104 .. 0.0500104
        k : 0.882338 .. 0.882338

    Block 17 cell size :
        i : 0.1585 .. 0.1585
        j : 0.0504998 .. 0.0504998
        k : 0.801299 .. 0.801299

    Block 18 cell size :
        i : 0.152172 .. 0.152172
        j : 0.0499787 .. 0.0499787
        k : 0.725368 .. 0.725368

    Block 19 cell size :
        i : 0.0712694 .. 0.0712694
        j : 0.0690079 .. 0.0690079
        k : 0.803791 .. 0.803791

    Block 20 cell size :
        i : 0.1585 .. 0.1585
        j : 0.0495 .. 0.0495
        k : 0.781204 .. 0.781204

    Block 21 cell size :
        i : 0.1585 .. 0.1585
        j : 0.0500104 .. 0.0500104
        k : 0.859743 .. 0.859743

    Block 22 cell size :
        i : 0.1585 .. 0.1585
        j : 0.0504998 .. 0.0504998
        k : 0.778713 .. 0.778713

    Block 23 cell size :
        i : 0.152172 .. 0.152172
        j : 0.0499787 .. 0.0499787
        k : 0.702793 .. 0.702793

    Block 24 cell size :
        i : 0.0712694 .. 0.0712694
        j : 0.0690079 .. 0.0690079
        k : 0.781204 .. 0.781204

    Block 25 cell size :
        i : 0.1585 .. 0.1585
        j : 0.0495 .. 0.0495
        k : 0.762866 .. 0.762866

    Block 26 cell size :
        i : 0.1585 .. 0.1585
        j : 0.0500104 .. 0.0500104
        k : 0.841395 .. 0.841395

    Block 27 cell size :
        i : 0.1585 .. 0.1585
        j : 0.0504998 .. 0.0504998
        k : 0.760375 .. 0.760375

    Block 28 cell size :
        i : 0.152172 .. 0.152172
        j : 0.0499787 .. 0.0499787
        k : 0.684469 .. 0.684469

    Block 29 cell size :
        i : 0.0712694 .. 0.0712694
        j : 0.0690079 .. 0.0690079
        k : 0.762866 .. 0.762866

    Block 30 cell size :
        i : 0.1585 .. 0.1585
        j : 0.0495 .. 0.0495
        k : 0.749089 .. 0.749089

    Block 31 cell size :
        i : 0.1585 .. 0.1585
        j : 0.0500104 .. 0.0500104
        k : 0.82761 .. 0.82761

    Block 32 cell size :
        i : 0.1585 .. 0.1585
        j : 0.0504998 .. 0.0504998
        k : 0.746598 .. 0.746598

    Block 33 cell size :
        i : 0.152172 .. 0.152172
        j : 0.0499787 .. 0.0499787
        k : 0.670702 .. 0.670702

    Block 34 cell size :
        i : 0.0712694 .. 0.0712694
        j : 0.0690079 .. 0.0690079
        k : 0.749089 .. 0.749089

    Block 35 cell size :
        i : 0.1585 .. 0.1585
        j : 0.0495 .. 0.0495
        k : 0.740127 .. 0.740127

    Block 36 cell size :
        i : 0.1585 .. 0.1585
        j : 0.0500104 .. 0.0500104
        k : 0.818642 .. 0.818642

    Block 37 cell size :
        i : 0.1585 .. 0.1585
        j : 0.0504998 .. 0.0504998
        k : 0.737636 .. 0.737636

    Block 38 cell size :
        i : 0.152172 .. 0.152172
        j : 0.0499787 .. 0.0499787
        k : 0.661748 .. 0.661748

    Block 39 cell size :
        i : 0.0712694 .. 0.0712694
        j : 0.0690079 .. 0.0690079
        k : 0.740127 .. 0.740127

    Block 40 cell size :
        i : 0.1585 .. 0.1585
        j : 0.0495 .. 0.0495
        k : 0.736155 .. 0.736155

    Block 41 cell size :
        i : 0.1585 .. 0.1585
        j : 0.0500104 .. 0.0500104
        k : 0.814667 .. 0.814667

    Block 42 cell size :
        i : 0.1585 .. 0.1585
        j : 0.0504998 .. 0.0504998
        k : 0.733665 .. 0.733665

    Block 43 cell size :
        i : 0.152172 .. 0.152172
        j : 0.0499787 .. 0.0499787
        k : 0.657782 .. 0.657782

    Block 44 cell size :
        i : 0.0712694 .. 0.0712694
        j : 0.0690079 .. 0.0690079
        k : 0.736155 .. 0.736155

    Block 45 cell size :
        i : 0.1585 .. 0.1585
        j : 0.0495 .. 0.0495
        k : 0.737256 .. 0.737256

    Block 46 cell size :
        i : 0.1585 .. 0.1585
        j : 0.0500104 .. 0.0500104
        k : 0.815765 .. 0.815765

    Block 47 cell size :
        i : 0.1585 .. 0.1585
        j : 0.0504998 .. 0.0504998
        k : 0.734766 .. 0.734766

    Block 48 cell size :
        i : 0.152172 .. 0.152172
        j : 0.0499787 .. 0.0499787
        k : 0.658885 .. 0.658885

    Block 49 cell size :
        i : 0.0712694 .. 0.0712694
        j : 0.0690079 .. 0.0690079
        k : 0.737256 .. 0.737256

    Block 50 cell size :
        i : 0.1585 .. 0.1585
        j : 0.0495 .. 0.0495
        k : 0.743406 .. 0.743406

    Block 51 cell size :
        i : 0.1585 .. 0.1585
        j : 0.0500104 .. 0.0500104
        k : 0.821915 .. 0.821915

    Block 52 cell size :
        i : 0.1585 .. 0.1585
        j : 0.0504998 .. 0.0504998
        k : 0.740915 .. 0.740915

    Block 53 cell size :
        i : 0.152172 .. 0.152172
        j : 0.0499787 .. 0.0499787
        k : 0.665034 .. 0.665034

    Block 54 cell size :
        i : 0.0712694 .. 0.0712694
        j : 0.0690079 .. 0.0690079
        k : 0.743406 .. 0.743406

    Block 55 cell size :
        i : 0.1585 .. 0.1585
        j : 0.0495 .. 0.0495
        k : 0.754481 .. 0.754481

    Block 56 cell size :
        i : 0.1585 .. 0.1585
        j : 0.0500104 .. 0.0500104
        k : 0.832995 .. 0.832995

    Block 57 cell size :
        i : 0.1585 .. 0.1585
        j : 0.0504998 .. 0.0504998
        k : 0.751991 .. 0.751991

    Block 58 cell size :
        i : 0.152172 .. 0.152172
        j : 0.0499787 .. 0.0499787
        k : 0.676103 .. 0.676103

    Block 59 cell size :
        i : 0.0712694 .. 0.0712694
        j : 0.0690079 .. 0.0690079
        k : 0.754481 .. 0.754481

    Block 60 cell size :
        i : 0.1585 .. 0.1585
        j : 0.0495 .. 0.0495
        k : 0.77027 .. 0.77027

    Block 61 cell size :
        i : 0.1585 .. 0.1585
        j : 0.0500104 .. 0.0500104
        k : 0.848794 .. 0.848794

    Block 62 cell size :
        i : 0.1585 .. 0.1585
        j : 0.0504998 .. 0.0504998
        k : 0.767779 .. 0.767779

    Block 63 cell size :
        i : 0.152172 .. 0.152172
        j : 0.0499787 .. 0.0499787
        k : 0.691878 .. 0.691878

    Block 64 cell size :
        i : 0.0712694 .. 0.0712694
        j : 0.0690079 .. 0.0690079
        k : 0.77027 .. 0.77027

    Block 65 cell size :
        i : 0.1585 .. 0.1585
        j : 0.0495 .. 0.0495
        k : 0.79049 .. 0.79049

    Block 66 cell size :
        i : 0.1585 .. 0.1585
        j : 0.0500104 .. 0.0500104
        k : 0.869029 .. 0.869029

    Block 67 cell size :
        i : 0.1585 .. 0.1585
        j : 0.0504998 .. 0.0504998
        k : 0.787998 .. 0.787998

    Block 68 cell size :
        i : 0.152172 .. 0.152172
        j : 0.0499787 .. 0.0499787
        k : 0.712077 .. 0.712077

    Block 69 cell size :
        i : 0.0712694 .. 0.0712694
        j : 0.0690079 .. 0.0690079
        k : 0.79049 .. 0.79049

    Block 70 cell size :
        i : 0.1585 .. 0.1585
        j : 0.0495 .. 0.0495
        k : 0.814811 .. 0.814811

    Block 71 cell size :
        i : 0.1585 .. 0.1585
        j : 0.0500104 .. 0.0500104
        k : 0.893366 .. 0.893366

    Block 72 cell size :
        i : 0.1585 .. 0.1585
        j : 0.0504998 .. 0.0504998
        k : 0.812318 .. 0.812318

    Block 73 cell size :
        i : 0.152172 .. 0.152172
        j : 0.0499787 .. 0.0499787
        k : 0.736377 .. 0.736377

    Block 74 cell size :
        i : 0.0712694 .. 0.0712694
        j : 0.0690079 .. 0.0690079
        k : 0.814811 .. 0.814811

    Block 75 cell size :
        i : 0.1585 .. 0.1585
        j : 0.0495 .. 0.0495
        k : 0.833945 .. 0.833945

    Block 76 cell size :
        i : 0.1585 .. 0.1585
        j : 0.0500104 .. 0.0500104
        k : 0.912506 .. 0.912506

    Block 77 cell size :
        i : 0.1585 .. 0.1585
        j : 0.0504998 .. 0.0504998
        k : 0.831453 .. 0.831453

    Block 78 cell size :
        i : 0.152172 .. 0.152172
        j : 0.0499787 .. 0.0499787
        k : 0.755503 .. 0.755503

    Block 79 cell size :
        i : 0.0712694 .. 0.0712694
        j : 0.0690079 .. 0.0690079
        k : 0.833945 .. 0.833945

    Block 80 cell size :
        i : 0.1585 .. 0.1585
        j : 0.0495 .. 0.0495
        k : 0.815205 .. 0.815205

    Block 81 cell size :
        i : 0.1585 .. 0.1585
        j : 0.0500104 .. 0.0500104
        k : 0.893752 .. 0.893752

    Block 82 cell size :
        i : 0.1585 .. 0.1585
        j : 0.0504998 .. 0.0504998
        k : 0.812713 .. 0.812713

    Block 83 cell size :
        i : 0.152172 .. 0.152172
        j : 0.0499787 .. 0.0499787
        k : 0.736782 .. 0.736782

    Block 84 cell size :
        i : 0.0712694 .. 0.0712694
        j : 0.0690079 .. 0.0690079
        k : 0.815205 .. 0.815205

    Block 85 cell size :
        i : 0.1585 .. 0.1585
        j : 0.0495 .. 0.0495
        k : 0.795726 .. 0.795726

    Block 86 cell size :
        i : 0.1585 .. 0.1585
        j : 0.0500104 .. 0.0500104
        k : 0.874262 .. 0.874262

    Block 87 cell size :
        i : 0.1585 .. 0.1585
        j : 0.0504998 .. 0.0504998
        k : 0.793235 .. 0.793235

    Block 88 cell size :
        i : 0.152172 .. 0.152172
        j : 0.0499787 .. 0.0499787
        k : 0.717319 .. 0.717319

    Block 89 cell size :
        i : 0.0712694 .. 0.0712694
        j : 0.0690079 .. 0.0690079
        k : 0.795726 .. 0.795726

    Block 90 cell size :
        i : 0.1585 .. 0.1585
        j : 0.0495 .. 0.0495
        k : 0.781167 .. 0.781167

    Block 91 cell size :
        i : 0.1585 .. 0.1585
        j : 0.0500104 .. 0.0500104
        k : 0.859697 .. 0.859697

    Block 92 cell size :
        i : 0.1585 .. 0.1585
        j : 0.0504998 .. 0.0504998
        k : 0.778676 .. 0.778676

    Block 93 cell size :
        i : 0.152172 .. 0.152172
        j : 0.0499787 .. 0.0499787
        k : 0.702767 .. 0.702767

    Block 94 cell size :
        i : 0.0712694 .. 0.0712694
        j : 0.0690079 .. 0.0690079
        k : 0.781167 .. 0.781167

    Block 95 cell size :
        i : 0.1585 .. 0.1585
        j : 0.0495 .. 0.0495
        k : 0.771805 .. 0.771805

    Block 96 cell size :
        i : 0.1585 .. 0.1585
        j : 0.0500104 .. 0.0500104
        k : 0.850334 .. 0.850334

    Block 97 cell size :
        i : 0.1585 .. 0.1585
        j : 0.0504998 .. 0.0504998
        k : 0.769314 .. 0.769314

    Block 98 cell size :
        i : 0.152172 .. 0.152172
        j : 0.0499787 .. 0.0499787
        k : 0.693406 .. 0.693406

    Block 99 cell size :
        i : 0.0712694 .. 0.0712694
        j : 0.0690079 .. 0.0690079
        k : 0.771805 .. 0.771805

    Block 100 cell size :
        i : 0.1585 .. 0.1585
        j : 0.0495 .. 0.0495
        k : 0.767831 .. 0.767831

    Block 101 cell size :
        i : 0.1585 .. 0.1585
        j : 0.0500104 .. 0.0500104
        k : 0.846361 .. 0.846361

    Block 102 cell size :
        i : 0.1585 .. 0.1585
        j : 0.0504998 .. 0.0504998
        k : 0.765339 .. 0.765339

    Block 103 cell size :
        i : 0.152172 .. 0.152172
        j : 0.0499787 .. 0.0499787
        k : 0.689431 .. 0.689431

    Block 104 cell size :
        i : 0.0712694 .. 0.0712694
        j : 0.0690079 .. 0.0690079
        k : 0.767831 .. 0.767831

    Block 105 cell size :
        i : 0.1585 .. 0.1585
        j : 0.0495 .. 0.0495
        k : 0.769327 .. 0.769327

    Block 106 cell size :
        i : 0.1585 .. 0.1585
        j : 0.0500104 .. 0.0500104
        k : 0.84786 .. 0.84786

    Block 107 cell size :
        i : 0.1585 .. 0.1585
        j : 0.0504998 .. 0.0504998
        k : 0.766836 .. 0.766836

    Block 108 cell size :
        i : 0.152172 .. 0.152172
        j : 0.0499787 .. 0.0499787
        k : 0.690925 .. 0.690925

    Block 109 cell size :
        i : 0.0712694 .. 0.0712694
        j : 0.0690079 .. 0.0690079
        k : 0.769327 .. 0.769327

    Block 110 cell size :
        i : 0.1585 .. 0.1585
        j : 0.0495 .. 0.0495
        k : 0.776264 .. 0.776264

    Block 111 cell size :
        i : 0.1585 .. 0.1585
        j : 0.0500104 .. 0.0500104
        k : 0.854799 .. 0.854799

    Block 112 cell size :
        i : 0.1585 .. 0.1585
        j : 0.0504998 .. 0.0504998
        k : 0.773773 .. 0.773773

    Block 113 cell size :
        i : 0.152172 .. 0.152172
        j : 0.0499787 .. 0.0499787
        k : 0.697857 .. 0.697857

    Block 114 cell size :
        i : 0.0712694 .. 0.0712694
        j : 0.0690079 .. 0.0690079
        k : 0.776264 .. 0.776264

    Block 115 cell size :
        i : 0.1585 .. 0.1585
        j : 0.0495 .. 0.0495
        k : 0.788496 .. 0.788496

    Block 116 cell size :
        i : 0.1585 .. 0.1585
        j : 0.0500104 .. 0.0500104
        k : 0.867037 .. 0.867037

    Block 117 cell size :
        i : 0.1585 .. 0.1585
        j : 0.0504998 .. 0.0504998
        k : 0.786005 .. 0.786005

    Block 118 cell size :
        i : 0.152172 .. 0.152172
        j : 0.0499787 .. 0.0499787
        k : 0.710083 .. 0.710083

    Block 119 cell size :
        i : 0.0712694 .. 0.0712694
        j : 0.0690079 .. 0.0690079
        k : 0.788496 .. 0.788496

    Block 120 cell size :
        i : 0.1585 .. 0.1585
        j : 0.0495 .. 0.0495
        k : 0.805784 .. 0.805784

    Block 121 cell size :
        i : 0.1585 .. 0.1585
        j : 0.0500104 .. 0.0500104
        k : 0.884333 .. 0.884333

    Block 122 cell size :
        i : 0.1585 .. 0.1585
        j : 0.0504998 .. 0.0504998
        k : 0.803292 .. 0.803292

    Block 123 cell size :
        i : 0.152172 .. 0.152172
        j : 0.0499787 .. 0.0499787
        k : 0.727358 .. 0.727358

    Block 124 cell size :
        i : 0.0712694 .. 0.0712694
        j : 0.0690079 .. 0.0690079
        k : 0.805784 .. 0.805784

    Block 125 cell size :
        i : 0.1585 .. 0.1585
        j : 0.0495 .. 0.0495
        k : 0.825924 .. 0.825924

    Block 126 cell size :
        i : 0.1585 .. 0.1585
        j : 0.0500104 .. 0.0500104
        k : 0.904484 .. 0.904484

    Block 127 cell size :
        i : 0.1585 .. 0.1585
        j : 0.0504998 .. 0.0504998
        k : 0.823432 .. 0.823432

    Block 128 cell size :
        i : 0.152172 .. 0.152172
        j : 0.0499787 .. 0.0499787
        k : 0.747484 .. 0.747484

    Block 129 cell size :
        i : 0.0712694 .. 0.0712694
        j : 0.0690079 .. 0.0690079
        k : 0.825924 .. 0.825924

    Block 130 cell size :
        i : 0.1585 .. 0.1585
        j : 0.0495 .. 0.0495
        k : 0.815355 .. 0.815355

    Block 131 cell size :
        i : 0.1585 .. 0.1585
        j : 0.0500104 .. 0.0500104
        k : 0.893911 .. 0.893911

    Block 132 cell size :
        i : 0.1585 .. 0.1585
        j : 0.0504998 .. 0.0504998
        k : 0.812863 .. 0.812863

    Block 133 cell size :
        i : 0.152172 .. 0.152172
        j : 0.0499787 .. 0.0499787
        k : 0.736921 .. 0.736921

    Block 134 cell size :
        i : 0.0712694 .. 0.0712694
        j : 0.0690079 .. 0.0690079
        k : 0.815355 .. 0.815355

    Block 135 cell size :
        i : 0.1585 .. 0.1585
        j : 0.0495 .. 0.0495
        k : 0.795943 .. 0.795943

    Block 136 cell size :
        i : 0.1585 .. 0.1585
        j : 0.0500104 .. 0.0500104
        k : 0.874488 .. 0.874488

    Block 137 cell size :
        i : 0.1585 .. 0.1585
        j : 0.0504998 .. 0.0504998
        k : 0.793452 .. 0.793452

    Block 138 cell size :
        i : 0.152172 .. 0.152172
        j : 0.0499787 .. 0.0499787
        k : 0.717524 .. 0.717524

    Block 139 cell size :
        i : 0.0712694 .. 0.0712694
        j : 0.0690079 .. 0.0690079
        k : 0.795943 .. 0.795943

    Block 140 cell size :
        i : 0.1585 .. 0.1585
        j : 0.0495 .. 0.0495
        k : 0.781226 .. 0.781226

    Block 141 cell size :
        i : 0.1585 .. 0.1585
        j : 0.0500104 .. 0.0500104
        k : 0.859763 .. 0.859763

    Block 142 cell size :
        i : 0.1585 .. 0.1585
        j : 0.0504998 .. 0.0504998
        k : 0.778734 .. 0.778734

    Block 143 cell size :
        i : 0.152172 .. 0.152172
        j : 0.0499787 .. 0.0499787
        k : 0.702816 .. 0.702816

    Block 144 cell size :
        i : 0.0712694 .. 0.0712694
        j : 0.0690079 .. 0.0690079
        k : 0.781226 .. 0.781226

    Block 145 cell size :
        i : 0.1585 .. 0.1585
        j : 0.0495 .. 0.0495
        k : 0.771471 .. 0.771471

    Block 146 cell size :
        i : 0.1585 .. 0.1585
        j : 0.0500104 .. 0.0500104
        k : 0.850003 .. 0.850003

    Block 147 cell size :
        i : 0.1585 .. 0.1585
        j : 0.0504998 .. 0.0504998
        k : 0.768979 .. 0.768979

    Block 148 cell size :
        i : 0.152172 .. 0.152172
        j : 0.0499787 .. 0.0499787
        k : 0.693067 .. 0.693067

    Block 149 cell size :
        i : 0.0712694 .. 0.0712694
        j : 0.0690079 .. 0.0690079
        k : 0.771471 .. 0.771471

    Block 150 cell size :
        i : 0.1585 .. 0.1585
        j : 0.0495 .. 0.0495
        k : 0.766868 .. 0.766868

    Block 151 cell size :
        i : 0.1585 .. 0.1585
        j : 0.0500104 .. 0.0500104
        k : 0.845399 .. 0.845399

    Block 152 cell size :
        i : 0.1585 .. 0.1585
        j : 0.0504998 .. 0.0504998
        k : 0.764377 .. 0.764377

    Block 153 cell size :
        i : 0.152172 .. 0.152172
        j : 0.0499787 .. 0.0499787
        k : 0.688467 .. 0.688467

    Block 154 cell size :
        i : 0.0712694 .. 0.0712694
        j : 0.0690079 .. 0.0690079
        k : 0.766868 .. 0.766868

    Block 155 cell size :
        i : 0.1585 .. 0.1585
        j : 0.0495 .. 0.0495
        k : 0.76751 .. 0.76751

    Block 156 cell size :
        i : 0.1585 .. 0.1585
        j : 0.0500104 .. 0.0500104
        k : 0.84604 .. 0.84604

    Block 157 cell size :
        i : 0.1585 .. 0.1585
        j : 0.0504998 .. 0.0504998
        k : 0.765018 .. 0.765018

    Block 158 cell size :
        i : 0.152172 .. 0.152172
        j : 0.0499787 .. 0.0499787
        k : 0.689109 .. 0.689109

    Block 159 cell size :
        i : 0.0712694 .. 0.0712694
        j : 0.0690079 .. 0.0690079
        k : 0.76751 .. 0.76751

    Block 160 cell size :
        i : 0.1585 .. 0.1585
        j : 0.0495 .. 0.0495
        k : 0.773383 .. 0.773383

    Block 161 cell size :
        i : 0.1585 .. 0.1585
        j : 0.0500104 .. 0.0500104
        k : 0.851916 .. 0.851916

    Block 162 cell size :
        i : 0.1585 .. 0.1585
        j : 0.0504998 .. 0.0504998
        k : 0.770892 .. 0.770892

    Block 163 cell size :
        i : 0.152172 .. 0.152172
        j : 0.0499787 .. 0.0499787
        k : 0.69498 .. 0.69498

    Block 164 cell size :
        i : 0.0712694 .. 0.0712694
        j : 0.0690079 .. 0.0690079
        k : 0.773383 .. 0.773383

    Block 165 cell size :
        i : 0.1585 .. 0.1585
        j : 0.0495 .. 0.0495
        k : 0.784371 .. 0.784371

    Block 166 cell size :
        i : 0.1585 .. 0.1585
        j : 0.0500104 .. 0.0500104
        k : 0.862908 .. 0.862908

    Block 167 cell size :
        i : 0.1585 .. 0.1585
        j : 0.0504998 .. 0.0504998
        k : 0.781879 .. 0.781879

    Block 168 cell size :
        i : 0.152172 .. 0.152172
        j : 0.0499787 .. 0.0499787
        k : 0.705961 .. 0.705961

    Block 169 cell size :
        i : 0.0712694 .. 0.0712694
        j : 0.0690079 .. 0.0690079
        k : 0.784371 .. 0.784371

    Block 170 cell size :
        i : 0.1585 .. 0.1585
        j : 0.0495 .. 0.0495
        k : 0.800262 .. 0.800262

    Block 171 cell size :
        i : 0.1585 .. 0.1585
        j : 0.0500104 .. 0.0500104
        k : 0.878809 .. 0.878809

    Block 172 cell size :
        i : 0.1585 .. 0.1585
        j : 0.0504998 .. 0.0504998
        k : 0.797771 .. 0.797771

    Block 173 cell size :
        i : 0.152172 .. 0.152172
        j : 0.0499787 .. 0.0499787
        k : 0.721841 .. 0.721841

    Block 174 cell size :
        i : 0.0712694 .. 0.0712694
        j : 0.0690079 .. 0.0690079
        k : 0.800262 .. 0.800262

    Block 175 cell size :
        i : 0.1585 .. 0.1585
        j : 0.0495 .. 0.0495
        k : 0.820772 .. 0.820772

    Block 176 cell size :
        i : 0.1585 .. 0.1585
        j : 0.0500104 .. 0.0500104
        k : 0.89933 .. 0.89933

    Block 177 cell size :
        i : 0.1585 .. 0.1585
        j : 0.0504998 .. 0.0504998
        k : 0.81828 .. 0.81828

    Block 178 cell size :
        i : 0.152172 .. 0.152172
        j : 0.0499787 .. 0.0499787
        k : 0.742336 .. 0.742336

    Block 179 cell size :
        i : 0.0712694 .. 0.0712694
        j : 0.0690079 .. 0.0690079
        k : 0.820772 .. 0.820772

    Block 180 cell size :
        i : 0.1585 .. 0.1585
        j : 0.0495 .. 0.0495
        k : 0.821423 .. 0.821423

    Block 181 cell size :
        i : 0.1585 .. 0.1585
        j : 0.0500104 .. 0.0500104
        k : 0.899981 .. 0.899981

    Block 182 cell size :
        i : 0.1585 .. 0.1585
        j : 0.0504998 .. 0.0504998
        k : 0.818931 .. 0.818931

    Block 183 cell size :
        i : 0.152172 .. 0.152172
        j : 0.0499787 .. 0.0499787
        k : 0.742986 .. 0.742986

    Block 184 cell size :
        i : 0.0712694 .. 0.0712694
        j : 0.0690079 .. 0.0690079
        k : 0.821423 .. 0.821423

    Block 185 cell size :
        i : 0.1585 .. 0.1585
        j : 0.0495 .. 0.0495
        k : 0.800634 .. 0.800634

    Block 186 cell size :
        i : 0.1585 .. 0.1585
        j : 0.0500104 .. 0.0500104
        k : 0.87918 .. 0.87918

    Block 187 cell size :
        i : 0.1585 .. 0.1585
        j : 0.0504998 .. 0.0504998
        k : 0.798142 .. 0.798142

    Block 188 cell size :
        i : 0.152172 .. 0.152172
        j : 0.0499787 .. 0.0499787
        k : 0.722212 .. 0.722212

    Block 189 cell size :
        i : 0.0712694 .. 0.0712694
        j : 0.0690079 .. 0.0690079
        k : 0.800634 .. 0.800634

    Block 190 cell size :
        i : 0.1585 .. 0.1585
        j : 0.0495 .. 0.0495
        k : 0.784474 .. 0.784474

    Block 191 cell size :
        i : 0.1585 .. 0.1585
        j : 0.0500104 .. 0.0500104
        k : 0.863012 .. 0.863012

    Block 192 cell size :
        i : 0.1585 .. 0.1585
        j : 0.0504998 .. 0.0504998
        k : 0.781983 .. 0.781983

    Block 193 cell size :
        i : 0.152172 .. 0.152172
        j : 0.0499787 .. 0.0499787
        k : 0.706064 .. 0.706064

    Block 194 cell size :
        i : 0.0712694 .. 0.0712694
        j : 0.0690079 .. 0.0690079
        k : 0.784474 .. 0.784474

    Block 195 cell size :
        i : 0.1585 .. 0.1585
        j : 0.0495 .. 0.0495
        k : 0.773242 .. 0.773242

    Block 196 cell size :
        i : 0.1585 .. 0.1585
        j : 0.0500104 .. 0.0500104
        k : 0.851775 .. 0.851775

    Block 197 cell size :
        i : 0.1585 .. 0.1585
        j : 0.0504998 .. 0.0504998
        k : 0.770751 .. 0.770751

    Block 198 cell size :
        i : 0.152172 .. 0.152172
        j : 0.0499787 .. 0.0499787
        k : 0.694839 .. 0.694839

    Block 199 cell size :
        i : 0.0712694 .. 0.0712694
        j : 0.0690079 .. 0.0690079
        k : 0.773242 .. 0.773242

    Block 200 cell size :
        i : 0.1585 .. 0.1585
        j : 0.0495 .. 0.0495
        k : 0.767154 .. 0.767154

    Block 201 cell size :
        i : 0.1585 .. 0.1585
        j : 0.0500104 .. 0.0500104
        k : 0.845685 .. 0.845685

    Block 202 cell size :
        i : 0.1585 .. 0.1585
        j : 0.0504998 .. 0.0504998
        k : 0.764663 .. 0.764663

    Block 203 cell size :
        i : 0.152172 .. 0.152172
        j : 0.0499787 .. 0.0499787
        k : 0.688754 .. 0.688754

    Block 204 cell size :
        i : 0.0712694 .. 0.0712694
        j : 0.0690079 .. 0.0690079
        k : 0.767154 .. 0.767154

    Block 205 cell size :
        i : 0.1585 .. 0.1585
        j : 0.0495 .. 0.0495
        k : 0.766332 .. 0.766332

    Block 206 cell size :
        i : 0.1585 .. 0.1585
        j : 0.0500104 .. 0.0500104
        k : 0.844863 .. 0.844863

    Block 207 cell size :
        i : 0.1585 .. 0.1585
        j : 0.0504998 .. 0.0504998
        k : 0.763841 .. 0.763841

    Block 208 cell size :
        i : 0.152172 .. 0.152172
        j : 0.0499787 .. 0.0499787
        k : 0.687932 .. 0.687932

    Block 209 cell size :
        i : 0.0712694 .. 0.0712694
        j : 0.0690079 .. 0.0690079
        k : 0.766332 .. 0.766332

    Block 210 cell size :
        i : 0.1585 .. 0.1585
        j : 0.0495 .. 0.0495
        k : 0.770793 .. 0.770793

    Block 211 cell size :
        i : 0.1585 .. 0.1585
        j : 0.0500104 .. 0.0500104
        k : 0.849325 .. 0.849325

    Block 212 cell size :
        i : 0.1585 .. 0.1585
        j : 0.0504998 .. 0.0504998
        k : 0.768302 .. 0.768302

    Block 213 cell size :
        i : 0.152172 .. 0.152172
        j : 0.0499787 .. 0.0499787
        k : 0.692391 .. 0.692391

    Block 214 cell size :
        i : 0.0712694 .. 0.0712694
        j : 0.0690079 .. 0.0690079
        k : 0.770793 .. 0.770793

    Block 215 cell size :
        i : 0.1585 .. 0.1585
        j : 0.0495 .. 0.0495
        k : 0.780447 .. 0.780447

    Block 216 cell size :
        i : 0.1585 .. 0.1585
        j : 0.0500104 .. 0.0500104
        k : 0.858983 .. 0.858983

    Block 217 cell size :
        i : 0.1585 .. 0.1585
        j : 0.0504998 .. 0.0504998
        k : 0.777956 .. 0.777956

    Block 218 cell size :
        i : 0.152172 .. 0.152172
        j : 0.0499787 .. 0.0499787
        k : 0.70204 .. 0.70204

    Block 219 cell size :
        i : 0.0712694 .. 0.0712694
        j : 0.0690079 .. 0.0690079
        k : 0.780447 .. 0.780447

    Block 220 cell size :
        i : 0.1585 .. 0.1585
        j : 0.0495 .. 0.0495
        k : 0.795105 .. 0.795105

    Block 221 cell size :
        i : 0.1585 .. 0.1585
        j : 0.0500104 .. 0.0500104
        k : 0.873648 .. 0.873648

    Block 222 cell size :
        i : 0.1585 .. 0.1585
        j : 0.0504998 .. 0.0504998
        k : 0.792613 .. 0.792613

    Block 223 cell size :
        i : 0.152172 .. 0.152172
        j : 0.0499787 .. 0.0499787
        k : 0.716687 .. 0.716687

    Block 224 cell size :
        i : 0.0712694 .. 0.0712694
        j : 0.0690079 .. 0.0690079
        k : 0.795105 .. 0.795105

    Block 225 cell size :
        i : 0.1585 .. 0.1585
        j : 0.0495 .. 0.0495
        k : 0.814496 .. 0.814496

    Block 226 cell size :
        i : 0.1585 .. 0.1585
        j : 0.0500104 .. 0.0500104
        k : 0.89305 .. 0.89305

    Block 227 cell size :
        i : 0.1585 .. 0.1585
        j : 0.0504998 .. 0.0504998
        k : 0.812004 .. 0.812004

    Block 228 cell size :
        i : 0.152172 .. 0.152172
        j : 0.0499787 .. 0.0499787
        k : 0.736064 .. 0.736064

    Block 229 cell size :
        i : 0.0712694 .. 0.0712694
        j : 0.0690079 .. 0.0690079
        k : 0.814496 .. 0.814496

    Block 230 cell size :
        i : 0.1585 .. 0.1585
        j : 0.0495 .. 0.0495
        k : 0.826232 .. 0.826232

    Block 231 cell size :
        i : 0.1585 .. 0.1585
        j : 0.0500104 .. 0.0500104
        k : 0.904793 .. 0.904793

    Block 232 cell size :
        i : 0.1585 .. 0.1585
        j : 0.0504998 .. 0.0504998
        k : 0.82374 .. 0.82374

    Block 233 cell size :
        i : 0.152172 .. 0.152172
        j : 0.0499787 .. 0.0499787
        k : 0.747791 .. 0.747791

    Block 234 cell size :
        i : 0.0712694 .. 0.0712694
        j : 0.0690079 .. 0.0690079
        k : 0.826232 .. 0.826232

    Block 235 cell size :
        i : 0.1585 .. 0.1585
        j : 0.0495 .. 0.0495
        k : 0.806484 .. 0.806484

    Block 236 cell size :
        i : 0.1585 .. 0.1585
        j : 0.0500104 .. 0.0500104
        k : 0.885034 .. 0.885034

    Block 237 cell size :
        i : 0.1585 .. 0.1585
        j : 0.0504998 .. 0.0504998
        k : 0.803992 .. 0.803992

    Block 238 cell size :
        i : 0.152172 .. 0.152172
        j : 0.0499787 .. 0.0499787
        k : 0.728058 .. 0.728058

    Block 239 cell size :
        i : 0.0712694 .. 0.0712694
        j : 0.0690079 .. 0.0690079
        k : 0.806484 .. 0.806484

    Block 240 cell size :
        i : 0.1585 .. 0.1585
        j : 0.0495 .. 0.0495
        k : 0.788919 .. 0.788919

    Block 241 cell size :
        i : 0.1585 .. 0.1585
        j : 0.0500104 .. 0.0500104
        k : 0.867459 .. 0.867459

    Block 242 cell size :
        i : 0.1585 .. 0.1585
        j : 0.0504998 .. 0.0504998
        k : 0.786427 .. 0.786427

    Block 243 cell size :
        i : 0.152172 .. 0.152172
        j : 0.0499787 .. 0.0499787
        k : 0.710506 .. 0.710506

    Block 244 cell size :
        i : 0.0712694 .. 0.0712694
        j : 0.0690079 .. 0.0690079
        k : 0.788919 .. 0.788919

    Block 245 cell size :
        i : 0.1585 .. 0.1585
        j : 0.0495 .. 0.0495
        k : 0.7762 .. 0.7762

    Block 246 cell size :
        i : 0.1585 .. 0.1585
        j : 0.0500104 .. 0.0500104
        k : 0.854734 .. 0.854734

    Block 247 cell size :
        i : 0.1585 .. 0.1585
        j : 0.0504998 .. 0.0504998
        k : 0.773708 .. 0.773708

    Block 248 cell size :
        i : 0.152172 .. 0.152172
        j : 0.0499787 .. 0.0499787
        k : 0.697795 .. 0.697795

    Block 249 cell size :
        i : 0.0712694 .. 0.0712694
        j : 0.0690079 .. 0.0690079
        k : 0.7762 .. 0.7762

    Block 250 cell size :
        i : 0.1585 .. 0.1585
        j : 0.0495 .. 0.0495
        k : 0.768567 .. 0.768567

    Block 251 cell size :
        i : 0.1585 .. 0.1585
        j : 0.0500104 .. 0.0500104
        k : 0.847098 .. 0.847098

    Block 252 cell size :
        i : 0.1585 .. 0.1585
        j : 0.0504998 .. 0.0504998
        k : 0.766076 .. 0.766076

    Block 253 cell size :
        i : 0.152172 .. 0.152172
        j : 0.0499787 .. 0.0499787
        k : 0.690166 .. 0.690166

    Block 254 cell size :
        i : 0.0712694 .. 0.0712694
        j : 0.0690079 .. 0.0690079
        k : 0.768567 .. 0.768567

    Block 255 cell size :
        i : 0.1585 .. 0.1585
        j : 0.0495 .. 0.0495
        k : 0.766172 .. 0.766172

    Block 256 cell size :
        i : 0.1585 .. 0.1585
        j : 0.0500104 .. 0.0500104
        k : 0.844703 .. 0.844703

    Block 257 cell size :
        i : 0.1585 .. 0.1585
        j : 0.0504998 .. 0.0504998
        k : 0.763681 .. 0.763681

    Block 258 cell size :
        i : 0.152172 .. 0.152172
        j : 0.0499787 .. 0.0499787
        k : 0.687772 .. 0.687772

    Block 259 cell size :
        i : 0.0712694 .. 0.0712694
        j : 0.0690079 .. 0.0690079
        k : 0.766172 .. 0.766172

    Block 260 cell size :
        i : 0.1585 .. 0.1585
        j : 0.0495 .. 0.0495
        k : 0.769065 .. 0.769065

    Block 261 cell size :
        i : 0.1585 .. 0.1585
        j : 0.0500104 .. 0.0500104
        k : 0.847596 .. 0.847596

    Block 262 cell size :
        i : 0.1585 .. 0.1585
        j : 0.0504998 .. 0.0504998
        k : 0.766573 .. 0.766573

    Block 263 cell size :
        i : 0.152172 .. 0.152172
        j : 0.0499787 .. 0.0499787
        k : 0.690663 .. 0.690663

    Block 264 cell size :
        i : 0.0712694 .. 0.0712694
        j : 0.0690079 .. 0.0690079
        k : 0.769065 .. 0.769065

    Block 265 cell size :
        i : 0.1585 .. 0.1585
        j : 0.0495 .. 0.0495
        k : 0.777185 .. 0.777185

    Block 266 cell size :
        i : 0.1585 .. 0.1585
        j : 0.0500104 .. 0.0500104
        k : 0.85572 .. 0.85572

    Block 267 cell size :
        i : 0.1585 .. 0.1585
        j : 0.0504998 .. 0.0504998
        k : 0.774694 .. 0.774694

    Block 268 cell size :
        i : 0.152172 .. 0.152172
        j : 0.0499787 .. 0.0499787
        k : 0.69878 .. 0.69878

    Block 269 cell size :
        i : 0.0712694 .. 0.0712694
        j : 0.0690079 .. 0.0690079
        k : 0.777185 .. 0.777185

    Block 270 cell size :
        i : 0.1585 .. 0.1585
        j : 0.0495 .. 0.0495
        k : 0.790373 .. 0.790373

    Block 271 cell size :
        i : 0.1585 .. 0.1585
        j : 0.0500104 .. 0.0500104
        k : 0.868914 .. 0.868914

    Block 272 cell size :
        i : 0.1585 .. 0.1585
        j : 0.0504998 .. 0.0504998
        k : 0.787882 .. 0.787882

    Block 273 cell size :
        i : 0.152172 .. 0.152172
        j : 0.0499787 .. 0.0499787
        k : 0.711959 .. 0.711959

    Block 274 cell size :
        i : 0.0712694 .. 0.0712694
        j : 0.0690079 .. 0.0690079
        k : 0.790373 .. 0.790373

    Block 275 cell size :
        i : 0.1585 .. 0.1585
        j : 0.0495 .. 0.0495
        k : 0.80838 .. 0.80838

    Block 276 cell size :
        i : 0.1585 .. 0.1585
        j : 0.0500104 .. 0.0500104
        k : 0.886931 .. 0.886931

    Block 277 cell size :
        i : 0.1585 .. 0.1585
        j : 0.0504998 .. 0.0504998
        k : 0.805888 .. 0.805888

    Block 278 cell size :
        i : 0.152172 .. 0.152172
        j : 0.0499787 .. 0.0499787
        k : 0.729952 .. 0.729952

    Block 279 cell size :
        i : 0.0712694 .. 0.0712694
        j : 0.0690079 .. 0.0690079
        k : 0.80838 .. 0.80838

    Block 280 cell size :
        i : 0.1585 .. 0.1585
        j : 0.0495 .. 0.0495
        k : 0.82682 .. 0.82682

    Block 281 cell size :
        i : 0.1585 .. 0.1585
        j : 0.0500104 .. 0.0500104
        k : 0.905381 .. 0.905381

    Block 282 cell size :
        i : 0.1585 .. 0.1585
        j : 0.0504998 .. 0.0504998
        k : 0.824328 .. 0.824328

    Block 283 cell size :
        i : 0.152172 .. 0.152172
        j : 0.0499787 .. 0.0499787
        k : 0.748379 .. 0.748379

    Block 284 cell size :
        i : 0.0712694 .. 0.0712694
        j : 0.0690079 .. 0.0690079
        k : 0.82682 .. 0.82682

    Block 285 cell size :
        i : 0.1585 .. 0.1585
        j : 0.0495 .. 0.0495
        k : 0.812394 .. 0.812394

    Block 286 cell size :
        i : 0.1585 .. 0.1585
        j : 0.0500104 .. 0.0500104
        k : 0.890947 .. 0.890947

    Block 287 cell size :
        i : 0.1585 .. 0.1585
        j : 0.0504998 .. 0.0504998
        k : 0.809902 .. 0.809902

    Block 288 cell size :
        i : 0.152172 .. 0.152172
        j : 0.0499787 .. 0.0499787
        k : 0.733963 .. 0.733963

    Block 289 cell size :
        i : 0.0712694 .. 0.0712694
        j : 0.0690079 .. 0.0690079
        k : 0.812394 .. 0.812394

    Block 290 cell size :
        i : 0.1585 .. 0.1585
        j : 0.0495 .. 0.0495
        k : 0.793486 .. 0.793486

    Block 291 cell size :
        i : 0.1585 .. 0.1585
        j : 0.0500104 .. 0.0500104
        k : 0.872028 .. 0.872028

    Block 292 cell size :
        i : 0.1585 .. 0.1585
        j : 0.0504998 .. 0.0504998
        k : 0.790994 .. 0.790994

    Block 293 cell size :
        i : 0.152172 .. 0.152172
        j : 0.0499787 .. 0.0499787
        k : 0.715069 .. 0.715069

    Block 294 cell size :
        i : 0.0712694 .. 0.0712694
        j : 0.0690079 .. 0.0690079
        k : 0.793486 .. 0.793486

    Block 295 cell size :
        i : 0.1585 .. 0.1585
        j : 0.0495 .. 0.0495
        k : 0.779339 .. 0.779339

    Block 296 cell size :
        i : 0.1585 .. 0.1585
        j : 0.0500104 .. 0.0500104
        k : 0.857875 .. 0.857875

    Block 297 cell size :
        i : 0.1585 .. 0.1585
        j : 0.0504998 .. 0.0504998
        k : 0.776848 .. 0.776848

    Block 298 cell size :
        i : 0.152172 .. 0.152172
        j : 0.0499787 .. 0.0499787
        k : 0.700933 .. 0.700933

    Block 299 cell size :
        i : 0.0712694 .. 0.0712694
        j : 0.0690079 .. 0.0690079
        k : 0.779339 .. 0.779339

    Block 300 cell size :
        i : 0.1585 .. 0.1585
        j : 0.0495 .. 0.0495
        k : 0.770218 .. 0.770218

    Block 301 cell size :
        i : 0.1585 .. 0.1585
        j : 0.0500104 .. 0.0500104
        k : 0.848749 .. 0.848749

    Block 302 cell size :
        i : 0.1585 .. 0.1585
        j : 0.0504998 .. 0.0504998
        k : 0.767726 .. 0.767726

    Block 303 cell size :
        i : 0.152172 .. 0.152172
        j : 0.0499787 .. 0.0499787
        k : 0.691816 .. 0.691816

    Block 304 cell size :
        i : 0.0712694 .. 0.0712694
        j : 0.0690079 .. 0.0690079
        k : 0.770218 .. 0.770218

    Block 305 cell size :
        i : 0.1585 .. 0.1585
        j : 0.0495 .. 0.0495
        k : 0.7663 .. 0.7663

    Block 306 cell size :
        i : 0.1585 .. 0.1585
        j : 0.0500104 .. 0.0500104
        k : 0.84483 .. 0.84483

    Block 307 cell size :
        i : 0.1585 .. 0.1585
        j : 0.0504998 .. 0.0504998
        k : 0.763809 .. 0.763809

    Block 308 cell size :
        i : 0.152172 .. 0.152172
        j : 0.0499787 .. 0.0499787
        k : 0.6879 .. 0.6879

    Block 309 cell size :
        i : 0.0712694 .. 0.0712694
        j : 0.0690079 .. 0.0690079
        k : 0.7663 .. 0.7663

    Block 310 cell size :
        i : 0.1585 .. 0.1585
        j : 0.0495 .. 0.0495
        k : 0.767666 .. 0.767666

    Block 311 cell size :
        i : 0.1585 .. 0.1585
        j : 0.0500104 .. 0.0500104
        k : 0.846197 .. 0.846197

    Block 312 cell size :
        i : 0.1585 .. 0.1585
        j : 0.0504998 .. 0.0504998
        k : 0.765174 .. 0.765174

    Block 313 cell size :
        i : 0.152172 .. 0.152172
        j : 0.0499787 .. 0.0499787
        k : 0.689265 .. 0.689265

    Block 314 cell size :
        i : 0.0712694 .. 0.0712694
        j : 0.0690079 .. 0.0690079
        k : 0.767666 .. 0.767666

    Block 315 cell size :
        i : 0.1585 .. 0.1585
        j : 0.0495 .. 0.0495
        k : 0.774287 .. 0.774287

    Block 316 cell size :
        i : 0.1585 .. 0.1585
        j : 0.0500104 .. 0.0500104
        k : 0.85282 .. 0.85282

    Block 317 cell size :
        i : 0.1585 .. 0.1585
        j : 0.0504998 .. 0.0504998
        k : 0.771796 .. 0.771796

    Block 318 cell size :
        i : 0.152172 .. 0.152172
        j : 0.0499787 .. 0.0499787
        k : 0.695883 .. 0.695883

    Block 319 cell size :
        i : 0.0712694 .. 0.0712694
        j : 0.0690079 .. 0.0690079
        k : 0.774287 .. 0.774287

    Block 320 cell size :
        i : 0.1585 .. 0.1585
        j : 0.0495 .. 0.0495
        k : 0.786031 .. 0.786031

    Block 321 cell size :
        i : 0.1585 .. 0.1585
        j : 0.0500104 .. 0.0500104
        k : 0.86457 .. 0.86457

    Block 322 cell size :
        i : 0.1585 .. 0.1585
        j : 0.0504998 .. 0.0504998
        k : 0.78354 .. 0.78354

    Block 323 cell size :
        i : 0.152172 .. 0.152172
        j : 0.0499787 .. 0.0499787
        k : 0.70762 .. 0.70762

    Block 324 cell size :
        i : 0.0712694 .. 0.0712694
        j : 0.0690079 .. 0.0690079
        k : 0.786031 .. 0.786031

    Block 325 cell size :
        i : 0.1585 .. 0.1585
        j : 0.0495 .. 0.0495
        k : 0.802674 .. 0.802674

    Block 326 cell size :
        i : 0.1585 .. 0.1585
        j : 0.0500104 .. 0.0500104
        k : 0.881221 .. 0.881221

    Block 327 cell size :
        i : 0.1585 .. 0.1585
        j : 0.0504998 .. 0.0504998
        k : 0.800182 .. 0.800182

    Block 328 cell size :
        i : 0.152172 .. 0.152172
        j : 0.0499787 .. 0.0499787
        k : 0.72425 .. 0.72425

    Block 329 cell size :
        i : 0.0712694 .. 0.0712694
        j : 0.0690079 .. 0.0690079
        k : 0.802674 .. 0.802674

    Block 330 cell size :
        i : 0.1585 .. 0.1585
        j : 0.0495 .. 0.0495
        k : 0.823598 .. 0.823598

    Block 331 cell size :
        i : 0.1585 .. 0.1585
        j : 0.0500104 .. 0.0500104
        k : 0.902157 .. 0.902157

    Block 332 cell size :
        i : 0.1585 .. 0.1585
        j : 0.0504998 .. 0.0504998
        k : 0.821106 .. 0.821106

    Block 333 cell size :
        i : 0.152172 .. 0.152172
        j : 0.0499787 .. 0.0499787
        k : 0.745159 .. 0.745159

    Block 334 cell size :
        i : 0.0712694 .. 0.0712694
        j : 0.0690079 .. 0.0690079
        k : 0.823598 .. 0.823598

    Block 335 cell size :
        i : 0.1585 .. 0.1585
        j : 0.0495 .. 0.0495
        k : 0.818735 .. 0.818735

    Block 336 cell size :
        i : 0.1585 .. 0.1585
        j : 0.0500104 .. 0.0500104
        k : 0.897292 .. 0.897292

    Block 337 cell size :
        i : 0.1585 .. 0.1585
        j : 0.0504998 .. 0.0504998
        k : 0.816243 .. 0.816243

    Block 338 cell size :
        i : 0.152172 .. 0.152172
        j : 0.0499787 .. 0.0499787
        k : 0.7403 .. 0.7403

    Block 339 cell size :
        i : 0.0712694 .. 0.0712694
        j : 0.0690079 .. 0.0690079
        k : 0.818735 .. 0.818735

    Block 340 cell size :
        i : 0.1585 .. 0.1585
        j : 0.0495 .. 0.0495
        k : 0.798502 .. 0.798502

    Block 341 cell size :
        i : 0.1585 .. 0.1585
        j : 0.0500104 .. 0.0500104
        k : 0.877047 .. 0.877047

    Block 342 cell size :
        i : 0.1585 .. 0.1585
        j : 0.0504998 .. 0.0504998
        k : 0.79601 .. 0.79601

    Block 343 cell size :
        i : 0.152172 .. 0.152172
        j : 0.0499787 .. 0.0499787
        k : 0.720081 .. 0.720081

    Block 344 cell size :
        i : 0.0712694 .. 0.0712694
        j : 0.0690079 .. 0.0690079
        k : 0.798502 .. 0.798502

    Block 345 cell size :
        i : 0.1585 .. 0.1585
        j : 0.0495 .. 0.0495
        k : 0.782942 .. 0.782942

    Block 346 cell size :
        i : 0.1585 .. 0.1585
        j : 0.0500104 .. 0.0500104
        k : 0.861479 .. 0.861479

    Block 347 cell size :
        i : 0.1585 .. 0.1585
        j : 0.0504998 .. 0.0504998
        k : 0.78045 .. 0.78045

    Block 348 cell size :
        i : 0.152172 .. 0.152172
        j : 0.0499787 .. 0.0499787
        k : 0.704532 .. 0.704532

    Block 349 cell size :
        i : 0.0712694 .. 0.0712694
        j : 0.0690079 .. 0.0690079
        k : 0.782942 .. 0.782942

    Block 350 cell size :
        i : 0.1585 .. 0.1585
        j : 0.0495 .. 0.0495
        k : 0.772338 .. 0.772338

    Block 351 cell size :
        i : 0.1585 .. 0.1585
        j : 0.0500104 .. 0.0500104
        k : 0.85087 .. 0.85087

    Block 352 cell size :
        i : 0.1585 .. 0.1585
        j : 0.0504998 .. 0.0504998
        k : 0.769846 .. 0.769846

    Block 353 cell size :
        i : 0.152172 .. 0.152172
        j : 0.0499787 .. 0.0499787
        k : 0.693935 .. 0.693935

    Block 354 cell size :
        i : 0.0712694 .. 0.0712694
        j : 0.0690079 .. 0.0690079
        k : 0.772338 .. 0.772338

    Block 355 cell size :
        i : 0.1585 .. 0.1585
        j : 0.0495 .. 0.0495
        k : 0.766895 .. 0.766895

    Block 356 cell size :
        i : 0.1585 .. 0.1585
        j : 0.0500104 .. 0.0500104
        k : 0.845426 .. 0.845426

    Block 357 cell size :
        i : 0.1585 .. 0.1585
        j : 0.0504998 .. 0.0504998
        k : 0.764404 .. 0.764404

    Block 358 cell size :
        i : 0.152172 .. 0.152172
        j : 0.0499787 .. 0.0499787
        k : 0.688495 .. 0.688495

    Block 359 cell size :
        i : 0.0712694 .. 0.0712694
        j : 0.0690079 .. 0.0690079
        k : 0.766895 .. 0.766895

    Block 360 cell size :
        i : 0.1585 .. 0.1585
        j : 0.0495 .. 0.0495
        k : 0.766725 .. 0.766725

    Block 361 cell size :
        i : 0.1585 .. 0.1585
        j : 0.0500104 .. 0.0500104
        k : 0.845255 .. 0.845255

    Block 362 cell size :
        i : 0.1585 .. 0.1585
        j : 0.0504998 .. 0.0504998
        k : 0.764234 .. 0.764234

    Block 363 cell size :
        i : 0.152172 .. 0.152172
        j : 0.0499787 .. 0.0499787
        k : 0.688324 .. 0.688324

    Block 364 cell size :
        i : 0.0712694 .. 0.0712694
        j : 0.0690079 .. 0.0690079
        k : 0.766725 .. 0.766725

    Block 365 cell size :
        i : 0.1585 .. 0.1585
        j : 0.0495 .. 0.0495
        k : 0.771829 .. 0.771829

    Block 366 cell size :
        i : 0.1585 .. 0.1585
        j : 0.0500104 .. 0.0500104
        k : 0.850362 .. 0.850362

    Block 367 cell size :
        i : 0.1585 .. 0.1585
        j : 0.0504998 .. 0.0504998
        k : 0.769338 .. 0.769338

    Block 368 cell size :
        i : 0.152172 .. 0.152172
        j : 0.0499787 .. 0.0499787
        k : 0.693427 .. 0.693427

    Block 369 cell size :
        i : 0.0712694 .. 0.0712694
        j : 0.0690079 .. 0.0690079
        k : 0.771829 .. 0.771829

    Block 370 cell size :
        i : 0.1585 .. 0.1585
        j : 0.0495 .. 0.0495
        k : 0.782106 .. 0.782106

    Block 371 cell size :
        i : 0.1585 .. 0.1585
        j : 0.0500104 .. 0.0500104
        k : 0.860642 .. 0.860642

    Block 372 cell size :
        i : 0.1585 .. 0.1585
        j : 0.0504998 .. 0.0504998
        k : 0.779614 .. 0.779614

    Block 373 cell size :
        i : 0.152172 .. 0.152172
        j : 0.0499787 .. 0.0499787
        k : 0.703697 .. 0.703697

    Block 374 cell size :
        i : 0.0712694 .. 0.0712694
        j : 0.0690079 .. 0.0690079
        k : 0.782106 .. 0.782106

    Block 375 cell size :
        i : 0.1585 .. 0.1585
        j : 0.0495 .. 0.0495
        k : 0.797354 .. 0.797354

    Block 376 cell size :
        i : 0.1585 .. 0.1585
        j : 0.0500104 .. 0.0500104
        k : 0.875898 .. 0.875898

    Block 377 cell size :
        i : 0.1585 .. 0.1585
        j : 0.0504998 .. 0.0504998
        k : 0.794862 .. 0.794862

    Block 378 cell size :
        i : 0.152172 .. 0.152172
        j : 0.0499787 .. 0.0499787
        k : 0.718934 .. 0.718934

    Block 379 cell size :
        i : 0.0712694 .. 0.0712694
        j : 0.0690079 .. 0.0690079
        k : 0.797354 .. 0.797354

    Block 380 cell size :
        i : 0.1585 .. 0.1585
        j : 0.0495 .. 0.0495
        k : 0.817296 .. 0.817296

    Block 381 cell size :
        i : 0.1585 .. 0.1585
        j : 0.0500104 .. 0.0500104
        k : 0.895852 .. 0.895852

    Block 382 cell size :
        i : 0.1585 .. 0.1585
        j : 0.0504998 .. 0.0504998
        k : 0.814804 .. 0.814804

    Block 383 cell size :
        i : 0.152172 .. 0.152172
        j : 0.0499787 .. 0.0499787
        k : 0.738861 .. 0.738861

    Block 384 cell size :
        i : 0.0712694 .. 0.0712694
        j : 0.0690079 .. 0.0690079
        k : 0.817296 .. 0.817296

    Block 385 cell size :
        i : 0.1585 .. 0.1585
        j : 0.0495 .. 0.0495
        k : 0.82465 .. 0.82465

    Block 386 cell size :
        i : 0.1585 .. 0.1585
        j : 0.0500104 .. 0.0500104
        k : 0.90321 .. 0.90321

    Block 387 cell size :
        i : 0.1585 .. 0.1585
        j : 0.0504998 .. 0.0504998
        k : 0.822158 .. 0.822158

    Block 388 cell size :
        i : 0.152172 .. 0.152172
        j : 0.0499787 .. 0.0499787
        k : 0.74621 .. 0.74621

    Block 389 cell size :
        i : 0.0712694 .. 0.0712694
        j : 0.0690079 .. 0.0690079
        k : 0.82465 .. 0.82465

    Block 390 cell size :
        i : 0.1585 .. 0.1585
        j : 0.0495 .. 0.0495
        k : 0.803909 .. 0.803909

    Block 391 cell size :
        i : 0.1585 .. 0.1585
        j : 0.0500104 .. 0.0500104
        k : 0.882457 .. 0.882457

    Block 392 cell size :
        i : 0.1585 .. 0.1585
        j : 0.0504998 .. 0.0504998
        k : 0.801417 .. 0.801417

    Block 393 cell size :
        i : 0.152172 .. 0.152172
        j : 0.0499787 .. 0.0499787
        k : 0.725485 .. 0.725485

    Block 394 cell size :
        i : 0.0712694 .. 0.0712694
        j : 0.0690079 .. 0.0690079
        k : 0.803909 .. 0.803909

    Block 395 cell size :
        i : 0.1585 .. 0.1585
        j : 0.0495 .. 0.0495
        k : 0.78696 .. 0.78696

    Block 396 cell size :
        i : 0.1585 .. 0.1585
        j : 0.0500104 .. 0.0500104
        k : 0.865499 .. 0.865499

    Block 397 cell size :
        i : 0.1585 .. 0.1585
        j : 0.0504998 .. 0.0504998
        k : 0.784469 .. 0.784469

    Block 398 cell size :
        i : 0.152172 .. 0.152172
        j : 0.0499787 .. 0.0499787
        k : 0.708548 .. 0.708548

    Block 399 cell size :
        i : 0.0712694 .. 0.0712694
        j : 0.0690079 .. 0.0690079
        k : 0.78696 .. 0.78696

    Block 400 cell size :
        i : 0.1585 .. 0.1585
        j : 0.0495 .. 0.0495
        k : 0.774893 .. 0.774893

    Block 401 cell size :
        i : 0.1585 .. 0.1585
        j : 0.0500104 .. 0.0500104
        k : 0.853426 .. 0.853426

    Block 402 cell size :
        i : 0.1585 .. 0.1585
        j : 0.0504998 .. 0.0504998
        k : 0.772401 .. 0.772401

    Block 403 cell size :
        i : 0.152172 .. 0.152172
        j : 0.0499787 .. 0.0499787
        k : 0.696488 .. 0.696488

    Block 404 cell size :
        i : 0.0712694 .. 0.0712694
        j : 0.0690079 .. 0.0690079
        k : 0.774893 .. 0.774893

    Block 405 cell size :
        i : 0.1585 .. 0.1585
        j : 0.0495 .. 0.0495
        k : 0.767936 .. 0.767936

    Block 406 cell size :
        i : 0.1585 .. 0.1585
        j : 0.0500104 .. 0.0500104
        k : 0.846467 .. 0.846467

    Block 407 cell size :
        i : 0.1585 .. 0.1585
        j : 0.0504998 .. 0.0504998
        k : 0.765445 .. 0.765445

    Block 408 cell size :
        i : 0.152172 .. 0.152172
        j : 0.0499787 .. 0.0499787
        k : 0.689535 .. 0.689535

    Block 409 cell size :
        i : 0.0712694 .. 0.0712694
        j : 0.0690079 .. 0.0690079
        k : 0.767936 .. 0.767936

    Block 410 cell size :
        i : 0.1585 .. 0.1585
        j : 0.0495 .. 0.0495
        k : 0.766229 .. 0.766229

    Block 411 cell size :
        i : 0.1585 .. 0.1585
        j : 0.0500104 .. 0.0500104
        k : 0.84476 .. 0.84476

    Block 412 cell size :
        i : 0.1585 .. 0.1585
        j : 0.0504998 .. 0.0504998
        k : 0.763738 .. 0.763738

    Block 413 cell size :
        i : 0.152172 .. 0.152172
        j : 0.0499787 .. 0.0499787
        k : 0.687829 .. 0.687829

    Block 414 cell size :
        i : 0.0712694 .. 0.0712694
        j : 0.0690079 .. 0.0690079
        k : 0.766229 .. 0.766229

    Block 415 cell size :
        i : 0.1585 .. 0.1585
        j : 0.0495 .. 0.0495
        k : 0.769808 .. 0.769808

    Block 416 cell size :
        i : 0.1585 .. 0.1585
        j : 0.0500104 .. 0.0500104
        k : 0.84834 .. 0.84834

    Block 417 cell size :
        i : 0.1585 .. 0.1585
        j : 0.0504998 .. 0.0504998
        k : 0.767317 .. 0.767317

    Block 418 cell size :
        i : 0.152172 .. 0.152172
        j : 0.0499787 .. 0.0499787
        k : 0.691407 .. 0.691407

    Block 419 cell size :
        i : 0.0712694 .. 0.0712694
        j : 0.0690079 .. 0.0690079
        k : 0.769808 .. 0.769808

    Block 420 cell size :
        i : 0.1585 .. 0.1585
        j : 0.0495 .. 0.0495
        k : 0.7786 .. 0.7786

    Block 421 cell size :
        i : 0.1585 .. 0.1585
        j : 0.0500104 .. 0.0500104
        k : 0.857135 .. 0.857135

    Block 422 cell size :
        i : 0.1585 .. 0.1585
        j : 0.0504998 .. 0.0504998
        k : 0.776108 .. 0.776108

    Block 423 cell size :
        i : 0.152172 .. 0.152172
        j : 0.0499787 .. 0.0499787
        k : 0.700193 .. 0.700193

    Block 424 cell size :
        i : 0.0712694 .. 0.0712694
        j : 0.0690079 .. 0.0690079
        k : 0.7786 .. 0.7786

    Block 425 cell size :
        i : 0.1585 .. 0.1585
        j : 0.0495 .. 0.0495
        k : 0.79243 .. 0.79243

    Block 426 cell size :
        i : 0.1585 .. 0.1585
        j : 0.0500104 .. 0.0500104
        k : 0.870972 .. 0.870972

    Block 427 cell size :
        i : 0.1585 .. 0.1585
        j : 0.0504998 .. 0.0504998
        k : 0.789938 .. 0.789938

    Block 428 cell size :
        i : 0.152172 .. 0.152172
        j : 0.0499787 .. 0.0499787
        k : 0.714014 .. 0.714014

    Block 429 cell size :
        i : 0.0712694 .. 0.0712694
        j : 0.0690079 .. 0.0690079
        k : 0.79243 .. 0.79243

    Block 430 cell size :
        i : 0.1585 .. 0.1585
        j : 0.0495 .. 0.0495
        k : 0.811041 .. 0.811041

    Block 431 cell size :
        i : 0.1585 .. 0.1585
        j : 0.0500104 .. 0.0500104
        k : 0.889594 .. 0.889594

    Block 432 cell size :
        i : 0.1585 .. 0.1585
        j : 0.0504998 .. 0.0504998
        k : 0.808549 .. 0.808549

    Block 433 cell size :
        i : 0.152172 .. 0.152172
        j : 0.0499787 .. 0.0499787
        k : 0.732611 .. 0.732611

    Block 434 cell size :
        i : 0.0712694 .. 0.0712694
        j : 0.0690079 .. 0.0690079
        k : 0.811041 .. 0.811041

    Block 435 cell size :
        i : 0.1585 .. 0.1585
        j : 0.0495 .. 0.0495
        k : 0.827016 .. 0.827016

    Block 436 cell size :
        i : 0.1585 .. 0.1585
        j : 0.0500104 .. 0.0500104
        k : 0.905578 .. 0.905578

    Block 437 cell size :
        i : 0.1585 .. 0.1585
        j : 0.0504998 .. 0.0504998
        k : 0.824524 .. 0.824524

    Block 438 cell size :
        i : 0.152172 .. 0.152172
        j : 0.0499787 .. 0.0499787
        k : 0.748575 .. 0.748575

    Block 439 cell size :
        i : 0.0712694 .. 0.0712694
        j : 0.0690079 .. 0.0690079
        k : 0.827016 .. 0.827016

    Block 440 cell size :
        i : 0.1585 .. 0.1585
        j : 0.0495 .. 0.0495
        k : 0.809702 .. 0.809702

    Block 441 cell size :
        i : 0.1585 .. 0.1585
        j : 0.0500104 .. 0.0500104
        k : 0.888254 .. 0.888254

    Block 442 cell size :
        i : 0.1585 .. 0.1585
        j : 0.0504998 .. 0.0504998
        k : 0.80721 .. 0.80721

    Block 443 cell size :
        i : 0.152172 .. 0.152172
        j : 0.0499787 .. 0.0499787
        k : 0.731273 .. 0.731273

    Block 444 cell size :
        i : 0.0712694 .. 0.0712694
        j : 0.0690079 .. 0.0690079
        k : 0.809702 .. 0.809702

    Block 445 cell size :
        i : 0.1585 .. 0.1585
        j : 0.0495 .. 0.0495
        k : 0.79139 .. 0.79139

    Block 446 cell size :
        i : 0.1585 .. 0.1585
        j : 0.0500104 .. 0.0500104
        k : 0.869931 .. 0.869931

    Block 447 cell size :
        i : 0.1585 .. 0.1585
        j : 0.0504998 .. 0.0504998
        k : 0.788899 .. 0.788899

    Block 448 cell size :
        i : 0.152172 .. 0.152172
        j : 0.0499787 .. 0.0499787
        k : 0.712975 .. 0.712975

    Block 449 cell size :
        i : 0.0712694 .. 0.0712694
        j : 0.0690079 .. 0.0690079
        k : 0.79139 .. 0.79139

    Block 450 cell size :
        i : 0.1585 .. 0.1585
        j : 0.0495 .. 0.0495
        k : 0.777878 .. 0.777878

    Block 451 cell size :
        i : 0.1585 .. 0.1585
        j : 0.0500104 .. 0.0500104
        k : 0.856413 .. 0.856413

    Block 452 cell size :
        i : 0.1585 .. 0.1585
        j : 0.0504998 .. 0.0504998
        k : 0.775387 .. 0.775387

    Block 453 cell size :
        i : 0.152172 .. 0.152172
        j : 0.0499787 .. 0.0499787
        k : 0.699472 .. 0.699472

    Block 454 cell size :
        i : 0.0712694 .. 0.0712694
        j : 0.0690079 .. 0.0690079
        k : 0.777878 .. 0.777878

    Block 455 cell size :
        i : 0.1585 .. 0.1585
        j : 0.0495 .. 0.0495
        k : 0.769419 .. 0.769419

    Block 456 cell size :
        i : 0.1585 .. 0.1585
        j : 0.0500104 .. 0.0500104
        k : 0.84795 .. 0.84795

    Block 457 cell size :
        i : 0.1585 .. 0.1585
        j : 0.0504998 .. 0.0504998
        k : 0.766928 .. 0.766928

    Block 458 cell size :
        i : 0.152172 .. 0.152172
        j : 0.0499787 .. 0.0499787
        k : 0.691017 .. 0.691017

    Block 459 cell size :
        i : 0.0712694 .. 0.0712694
        j : 0.0690079 .. 0.0690079
        k : 0.769419 .. 0.769419

    Block 460 cell size :
        i : 0.1585 .. 0.1585
        j : 0.0495 .. 0.0495
        k : 0.76618 .. 0.76618

    Block 461 cell size :
        i : 0.1585 .. 0.1585
        j : 0.0500104 .. 0.0500104
        k : 0.84471 .. 0.84471

    Block 462 cell size :
        i : 0.1585 .. 0.1585
        j : 0.0504998 .. 0.0504998
        k : 0.763689 .. 0.763689

    Block 463 cell size :
        i : 0.152172 .. 0.152172
        j : 0.0499787 .. 0.0499787
        k : 0.68778 .. 0.68778

    Block 464 cell size :
        i : 0.0712694 .. 0.0712694
        j : 0.0690079 .. 0.0690079
        k : 0.76618 .. 0.76618

    Block 465 cell size :
        i : 0.1585 .. 0.1585
        j : 0.0495 .. 0.0495
        k : 0.768227 .. 0.768227

    Block 466 cell size :
        i : 0.1585 .. 0.1585
        j : 0.0500104 .. 0.0500104
        k : 0.846758 .. 0.846758

    Block 467 cell size :
        i : 0.1585 .. 0.1585
        j : 0.0504998 .. 0.0504998
        k : 0.765736 .. 0.765736

    Block 468 cell size :
        i : 0.152172 .. 0.152172
        j : 0.0499787 .. 0.0499787
        k : 0.689826 .. 0.689826

    Block 469 cell size :
        i : 0.0712694 .. 0.0712694
        j : 0.0690079 .. 0.0690079
        k : 0.768227 .. 0.768227

    Block 470 cell size :
        i : 0.1585 .. 0.1585
        j : 0.0495 .. 0.0495
        k : 0.775519 .. 0.775519

    Block 471 cell size :
        i : 0.1585 .. 0.1585
        j : 0.0500104 .. 0.0500104
        k : 0.854052 .. 0.854052

    Block 472 cell size :
        i : 0.1585 .. 0.1585
        j : 0.0504998 .. 0.0504998
        k : 0.773027 .. 0.773027

    Block 473 cell size :
        i : 0.152172 .. 0.152172
        j : 0.0499787 .. 0.0499787
        k : 0.697114 .. 0.697114

    Block 474 cell size :
        i : 0.0712694 .. 0.0712694
        j : 0.0690079 .. 0.0690079
        k : 0.775519 .. 0.775519

    Block 475 cell size :
        i : 0.1585 .. 0.1585
        j : 0.0495 .. 0.0495
        k : 0.787909 .. 0.787909

    Block 476 cell size :
        i : 0.1585 .. 0.1585
        j : 0.0500104 .. 0.0500104
        k : 0.866449 .. 0.866449

    Block 477 cell size :
        i : 0.1585 .. 0.1585
        j : 0.0504998 .. 0.0504998
        k : 0.785418 .. 0.785418

    Block 478 cell size :
        i : 0.152172 .. 0.152172
        j : 0.0499787 .. 0.0499787
        k : 0.709497 .. 0.709497

    Block 479 cell size :
        i : 0.0712694 .. 0.0712694
        j : 0.0690079 .. 0.0690079
        k : 0.787909 .. 0.787909

    Block 480 cell size :
        i : 0.1585 .. 0.1585
        j : 0.0495 .. 0.0495
        k : 0.805163 .. 0.805163

    Block 481 cell size :
        i : 0.1585 .. 0.1585
        j : 0.0500104 .. 0.0500104
        k : 0.883712 .. 0.883712

    Block 482 cell size :
        i : 0.1585 .. 0.1585
        j : 0.0504998 .. 0.0504998
        k : 0.802671 .. 0.802671

    Block 483 cell size :
        i : 0.152172 .. 0.152172
        j : 0.0499787 .. 0.0499787
        k : 0.726738 .. 0.726738

    Block 484 cell size :
        i : 0.0712694 .. 0.0712694
        j : 0.0690079 .. 0.0690079
        k : 0.805163 .. 0.805163

    Block 485 cell size :
        i : 0.1585 .. 0.1585
        j : 0.0495 .. 0.0495
        k : 0.82551 .. 0.82551

    Block 486 cell size :
        i : 0.1585 .. 0.1585
        j : 0.0500104 .. 0.0500104
        k : 0.904071 .. 0.904071

    Block 487 cell size :
        i : 0.1585 .. 0.1585
        j : 0.0504998 .. 0.0504998
        k : 0.823018 .. 0.823018

    Block 488 cell size :
        i : 0.152172 .. 0.152172
        j : 0.0499787 .. 0.0499787
        k : 0.74707 .. 0.74707

    Block 489 cell size :
        i : 0.0712694 .. 0.0712694
        j : 0.0690079 .. 0.0690079
        k : 0.82551 .. 0.82551

    Block 490 cell size :
        i : 0.1585 .. 0.1585
        j : 0.0495 .. 0.0495
        k : 0.815874 .. 0.815874

    Block 491 cell size :
        i : 0.1585 .. 0.1585
        j : 0.0500104 .. 0.0500104
        k : 0.894429 .. 0.894429

    Block 492 cell size :
        i : 0.1585 .. 0.1585
        j : 0.0504998 .. 0.0504998
        k : 0.813382 .. 0.813382

    Block 493 cell size :
        i : 0.152172 .. 0.152172
        j : 0.0499787 .. 0.0499787
        k : 0.73744 .. 0.73744

    Block 494 cell size :
        i : 0.0712694 .. 0.0712694
        j : 0.0690079 .. 0.0690079
        k : 0.815874 .. 0.815874

    Block 495 cell size :
        i : 0.1585 .. 0.1585
        j : 0.0495 .. 0.0495
        k : 0.796225 .. 0.796225

    Block 496 cell size :
        i : 0.1585 .. 0.1585
        j : 0.0500104 .. 0.0500104
        k : 0.874769 .. 0.874769

    Block 497 cell size :
        i : 0.1585 .. 0.1585
        j : 0.0504998 .. 0.0504998
        k : 0.793733 .. 0.793733

    Block 498 cell size :
        i : 0.152172 .. 0.152172
        j : 0.0499787 .. 0.0499787
        k : 0.717807 .. 0.717807

    Block 499 cell size :
        i : 0.0712694 .. 0.0712694
        j : 0.0690079 .. 0.0690079
        k : 0.796225 .. 0.796225

    Block 500 cell size :
        i : 0.1585 .. 0.1585
        j : 0.0495 .. 0.0495
        k : 0.78129 .. 0.78129

    Block 501 cell size :
        i : 0.1585 .. 0.1585
        j : 0.0500104 .. 0.0500104
        k : 0.859826 .. 0.859826

    Block 502 cell size :
        i : 0.1585 .. 0.1585
        j : 0.0504998 .. 0.0504998
        k : 0.778799 .. 0.778799

    Block 503 cell size :
        i : 0.152172 .. 0.152172
        j : 0.0499787 .. 0.0499787
        k : 0.702882 .. 0.702882

    Block 504 cell size :
        i : 0.0712694 .. 0.0712694
        j : 0.0690079 .. 0.0690079
        k : 0.78129 .. 0.78129

    Block 505 cell size :
        i : 0.1585 .. 0.1585
        j : 0.0495 .. 0.0495
        k : 0.771342 .. 0.771342

    Block 506 cell size :
        i : 0.1585 .. 0.1585
        j : 0.0500104 .. 0.0500104
        k : 0.849875 .. 0.849875

    Block 507 cell size :
        i : 0.1585 .. 0.1585
        j : 0.0504998 .. 0.0504998
        k : 0.768851 .. 0.768851

    Block 508 cell size :
        i : 0.152172 .. 0.152172
        j : 0.0499787 .. 0.0499787
        k : 0.69294 .. 0.69294

    Block 509 cell size :
        i : 0.0712694 .. 0.0712694
        j : 0.0690079 .. 0.0690079
        k : 0.771342 .. 0.771342

    Block 510 cell size :
        i : 0.1585 .. 0.1585
        j : 0.0495 .. 0.0495
        k : 0.766576 .. 0.766576

    Block 511 cell size :
        i : 0.1585 .. 0.1585
        j : 0.0500104 .. 0.0500104
        k : 0.845107 .. 0.845107

    Block 512 cell size :
        i : 0.1585 .. 0.1585
        j : 0.0504998 .. 0.0504998
        k : 0.764085 .. 0.764085

    Block 513 cell size :
        i : 0.152172 .. 0.152172
        j : 0.0499787 .. 0.0499787
        k : 0.688176 .. 0.688176

    Block 514 cell size :
        i : 0.0712694 .. 0.0712694
        j : 0.0690079 .. 0.0690079
        k : 0.766576 .. 0.766576

    Block 515 cell size :
        i : 0.1585 .. 0.1585
        j : 0.0495 .. 0.0495
        k : 0.767088 .. 0.767088

    Block 516 cell size :
        i : 0.1585 .. 0.1585
        j : 0.0500104 .. 0.0500104
        k : 0.845619 .. 0.845619

    Block 517 cell size :
        i : 0.1585 .. 0.1585
        j : 0.0504998 .. 0.0504998
        k : 0.764597 .. 0.764597

    Block 518 cell size :
        i : 0.152172 .. 0.152172
        j : 0.0499787 .. 0.0499787
        k : 0.688688 .. 0.688688

    Block 519 cell size :
        i : 0.0712694 .. 0.0712694
        j : 0.0690079 .. 0.0690079
        k : 0.767088 .. 0.767088

    Block 520 cell size :
        i : 0.1585 .. 0.1585
        j : 0.0495 .. 0.0495
        k : 0.772868 .. 0.772868

    Block 521 cell size :
        i : 0.1585 .. 0.1585
        j : 0.0500104 .. 0.0500104
        k : 0.851401 .. 0.851401

    Block 522 cell size :
        i : 0.1585 .. 0.1585
        j : 0.0504998 .. 0.0504998
        k : 0.770377 .. 0.770377

    Block 523 cell size :
        i : 0.152172 .. 0.152172
        j : 0.0499787 .. 0.0499787
        k : 0.694465 .. 0.694465

    Block 524 cell size :
        i : 0.0712694 .. 0.0712694
        j : 0.0690079 .. 0.0690079
        k : 0.772868 .. 0.772868

    Block 525 cell size :
        i : 0.1585 .. 0.1585
        j : 0.0495 .. 0.0495
        k : 0.783799 .. 0.783799

    Block 526 cell size :
        i : 0.1585 .. 0.1585
        j : 0.0500104 .. 0.0500104
        k : 0.862336 .. 0.862336

    Block 527 cell size :
        i : 0.1585 .. 0.1585
        j : 0.0504998 .. 0.0504998
        k : 0.781308 .. 0.781308

    Block 528 cell size :
        i : 0.152172 .. 0.152172
        j : 0.0499787 .. 0.0499787
        k : 0.705389 .. 0.705389

    Block 529 cell size :
        i : 0.0712694 .. 0.0712694
        j : 0.0690079 .. 0.0690079
        k : 0.783799 .. 0.783799

    Block 530 cell size :
        i : 0.1585 .. 0.1585
        j : 0.0495 .. 0.0495
        k : 0.79967 .. 0.79967

    Block 531 cell size :
        i : 0.1585 .. 0.1585
        j : 0.0500104 .. 0.0500104
        k : 0.878216 .. 0.878216

    Block 532 cell size :
        i : 0.1585 .. 0.1585
        j : 0.0504998 .. 0.0504998
        k : 0.797178 .. 0.797178

    Block 533 cell size :
        i : 0.152172 .. 0.152172
        j : 0.0499787 .. 0.0499787
        k : 0.721249 .. 0.721249

    Block 534 cell size :
        i : 0.0712694 .. 0.0712694
        j : 0.0690079 .. 0.0690079
        k : 0.79967 .. 0.79967

    Block 535 cell size :
        i : 0.1585 .. 0.1585
        j : 0.0495 .. 0.0495
        k : 0.820194 .. 0.820194

    Block 536 cell size :
        i : 0.1585 .. 0.1585
        j : 0.0500104 .. 0.0500104
        k : 0.898751 .. 0.898751

    Block 537 cell size :
        i : 0.1585 .. 0.1585
        j : 0.0504998 .. 0.0504998
        k : 0.817702 .. 0.817702

    Block 538 cell size :
        i : 0.152172 .. 0.152172
        j : 0.0499787 .. 0.0499787
        k : 0.741757 .. 0.741757

    Block 539 cell size :
        i : 0.0712694 .. 0.0712694
        j : 0.0690079 .. 0.0690079
        k : 0.820194 .. 0.820194

    Block 540 cell size :
        i : 0.1585 .. 0.1585
        j : 0.0495 .. 0.0495
        k : 0.822356 .. 0.822356

    Block 541 cell size :
        i : 0.1585 .. 0.1585
        j : 0.0500104 .. 0.0500104
        k : 0.900915 .. 0.900915

    Block 542 cell size :
        i : 0.1585 .. 0.1585
        j : 0.0504998 .. 0.0504998
        k : 0.819864 .. 0.819864

    Block 543 cell size :
        i : 0.152172 .. 0.152172
        j : 0.0499787 .. 0.0499787
        k : 0.743918 .. 0.743918

    Block 544 cell size :
        i : 0.0712694 .. 0.0712694
        j : 0.0690079 .. 0.0690079
        k : 0.822356 .. 0.822356

    Block 545 cell size :
        i : 0.1585 .. 0.1585
        j : 0.0495 .. 0.0495
        k : 0.801458 .. 0.801458

    Block 546 cell size :
        i : 0.1585 .. 0.1585
        j : 0.0500104 .. 0.0500104
        k : 0.880005 .. 0.880005

    Block 547 cell size :
        i : 0.1585 .. 0.1585
        j : 0.0504998 .. 0.0504998
        k : 0.798966 .. 0.798966

    Block 548 cell size :
        i : 0.152172 .. 0.152172
        j : 0.0499787 .. 0.0499787
        k : 0.723035 .. 0.723035

    Block 549 cell size :
        i : 0.0712694 .. 0.0712694
        j : 0.0690079 .. 0.0690079
        k : 0.801458 .. 0.801458

    Block 550 cell size :
        i : 0.1585 .. 0.1585
        j : 0.0495 .. 0.0495
        k : 0.785123 .. 0.785123

    Block 551 cell size :
        i : 0.1585 .. 0.1585
        j : 0.0500104 .. 0.0500104
        k : 0.863661 .. 0.863661

    Block 552 cell size :
        i : 0.1585 .. 0.1585
        j : 0.0504998 .. 0.0504998
        k : 0.782632 .. 0.782632

    Block 553 cell size :
        i : 0.152172 .. 0.152172
        j : 0.0499787 .. 0.0499787
        k : 0.706712 .. 0.706712

    Block 554 cell size :
        i : 0.0712694 .. 0.0712694
        j : 0.0690079 .. 0.0690079
        k : 0.785123 .. 0.785123

    Block 555 cell size :
        i : 0.1585 .. 0.1585
        j : 0.0495 .. 0.0495
        k : 0.773704 .. 0.773704

    Block 556 cell size :
        i : 0.1585 .. 0.1585
        j : 0.0500104 .. 0.0500104
        k : 0.852237 .. 0.852237

    Block 557 cell size :
        i : 0.1585 .. 0.1585
        j : 0.0504998 .. 0.0504998
        k : 0.771212 .. 0.771212

    Block 558 cell size :
        i : 0.152172 .. 0.152172
        j : 0.0499787 .. 0.0499787
        k : 0.6953 .. 0.6953

    Block 559 cell size :
        i : 0.0712694 .. 0.0712694
        j : 0.0690079 .. 0.0690079
        k : 0.773704 .. 0.773704

    Block 560 cell size :
        i : 0.1585 .. 0.1585
        j : 0.0495 .. 0.0495
        k : 0.767419 .. 0.767419

    Block 561 cell size :
        i : 0.1585 .. 0.1585
        j : 0.0500104 .. 0.0500104
        k : 0.84595 .. 0.84595

    Block 562 cell size :
        i : 0.1585 .. 0.1585
        j : 0.0504998 .. 0.0504998
        k : 0.764927 .. 0.764927

    Block 563 cell size :
        i : 0.152172 .. 0.152172
        j : 0.0499787 .. 0.0499787
        k : 0.689018 .. 0.689018

    Block 564 cell size :
        i : 0.0712694 .. 0.0712694
        j : 0.0690079 .. 0.0690079
        k : 0.767419 .. 0.767419

    Block 565 cell size :
        i : 0.1585 .. 0.1585
        j : 0.0495 .. 0.0495
        k : 0.766395 .. 0.766395

    Block 566 cell size :
        i : 0.1585 .. 0.1585
        j : 0.0500104 .. 0.0500104
        k : 0.844925 .. 0.844925

    Block 567 cell size :
        i : 0.1585 .. 0.1585
        j : 0.0504998 .. 0.0504998
        k : 0.763903 .. 0.763903

    Block 568 cell size :
        i : 0.152172 .. 0.152172
        j : 0.0499787 .. 0.0499787
        k : 0.687994 .. 0.687994

    Block 569 cell size :
        i : 0.0712694 .. 0.0712694
        j : 0.0690079 .. 0.0690079
        k : 0.766395 .. 0.766395

    Block 570 cell size :
        i : 0.1585 .. 0.1585
        j : 0.0495 .. 0.0495
        k : 0.770652 .. 0.770652

    Block 571 cell size :
        i : 0.1585 .. 0.1585
        j : 0.0500104 .. 0.0500104
        k : 0.849184 .. 0.849184

    Block 572 cell size :
        i : 0.1585 .. 0.1585
        j : 0.0504998 .. 0.0504998
        k : 0.768161 .. 0.768161

    Block 573 cell size :
        i : 0.152172 .. 0.152172
        j : 0.0499787 .. 0.0499787
        k : 0.69225 .. 0.69225

    Block 574 cell size :
        i : 0.0712694 .. 0.0712694
        j : 0.0690079 .. 0.0690079
        k : 0.770652 .. 0.770652

    Block 575 cell size :
        i : 0.1585 .. 0.1585
        j : 0.0495 .. 0.0495
        k : 0.780106 .. 0.780106

    Block 576 cell size :
        i : 0.1585 .. 0.1585
        j : 0.0500104 .. 0.0500104
        k : 0.858641 .. 0.858641

    Block 577 cell size :
        i : 0.1585 .. 0.1585
        j : 0.0504998 .. 0.0504998
        k : 0.777614 .. 0.777614

    Block 578 cell size :
        i : 0.152172 .. 0.152172
        j : 0.0499787 .. 0.0499787
        k : 0.701698 .. 0.701698

    Block 579 cell size :
        i : 0.0712694 .. 0.0712694
        j : 0.0690079 .. 0.0690079
        k : 0.780106 .. 0.780106

    Block 580 cell size :
        i : 0.1585 .. 0.1585
        j : 0.0495 .. 0.0495
        k : 0.794569 .. 0.794569

    Block 581 cell size :
        i : 0.1585 .. 0.1585
        j : 0.0500104 .. 0.0500104
        k : 0.873112 .. 0.873112

    Block 582 cell size :
        i : 0.1585 .. 0.1585
        j : 0.0504998 .. 0.0504998
        k : 0.792077 .. 0.792077

    Block 583 cell size :
        i : 0.152172 .. 0.152172
        j : 0.0499787 .. 0.0499787
        k : 0.716152 .. 0.716152

    Block 584 cell size :
        i : 0.0712694 .. 0.0712694
        j : 0.0690079 .. 0.0690079
        k : 0.794569 .. 0.794569

    Block 585 cell size :
        i : 0.1585 .. 0.1585
        j : 0.0495 .. 0.0495
        k : 0.813775 .. 0.813775

    Block 586 cell size :
        i : 0.1585 .. 0.1585
        j : 0.0500104 .. 0.0500104
        k : 0.892329 .. 0.892329

    Block 587 cell size :
        i : 0.1585 .. 0.1585
        j : 0.0504998 .. 0.0504998
        k : 0.811283 .. 0.811283

    Block 588 cell size :
        i : 0.152172 .. 0.152172
        j : 0.0499787 .. 0.0499787
        k : 0.735343 .. 0.735343

    Block 589 cell size :
        i : 0.0712694 .. 0.0712694
        j : 0.0690079 .. 0.0690079
        k : 0.813775 .. 0.813775

    Block 590 cell size :
        i : 0.1585 .. 0.1585
        j : 0.0495 .. 0.0495
        k : 0.826443 .. 0.826443

    Block 591 cell size :
        i : 0.1585 .. 0.1585
        j : 0.0500104 .. 0.0500104
        k : 0.905003 .. 0.905003

    Block 592 cell size :
        i : 0.1585 .. 0.1585
        j : 0.0504998 .. 0.0504998
        k : 0.82395 .. 0.82395

    Block 593 cell size :
        i : 0.152172 .. 0.152172
        j : 0.0499787 .. 0.0499787
        k : 0.748002 .. 0.748002

    Block 594 cell size :
        i : 0.0712694 .. 0.0712694
        j : 0.0690079 .. 0.0690079
        k : 0.826443 .. 0.826443

    Block 595 cell size :
        i : 0.1585 .. 0.1585
        j : 0.0495 .. 0.0495
        k : 0.80708 .. 0.80708

    Block 596 cell size :
        i : 0.1585 .. 0.1585
        j : 0.0500104 .. 0.0500104
        k : 0.88563 .. 0.88563

    Block 597 cell size :
        i : 0.1585 .. 0.1585
        j : 0.0504998 .. 0.0504998
        k : 0.804588 .. 0.804588

    Block 598 cell size :
        i : 0.152172 .. 0.152172
        j : 0.0499787 .. 0.0499787
        k : 0.728653 .. 0.728653

    Block 599 cell size :
        i : 0.0712694 .. 0.0712694
        j : 0.0690079 .. 0.0690079
        k : 0.80708 .. 0.80708

    Block 600 cell size :
        i : 0.1585 .. 0.1585
        j : 0.0495 .. 0.0495
        k : 0.789371 .. 0.789371

    Block 601 cell size :
        i : 0.1585 .. 0.1585
        j : 0.0500104 .. 0.0500104
        k : 0.867911 .. 0.867911

    Block 602 cell size :
        i : 0.1585 .. 0.1585
        j : 0.0504998 .. 0.0504998
        k : 0.786879 .. 0.786879

    Block 603 cell size :
        i : 0.152172 .. 0.152172
        j : 0.0499787 .. 0.0499787
        k : 0.710957 .. 0.710957

    Block 604 cell size :
        i : 0.0712694 .. 0.0712694
        j : 0.0690079 .. 0.0690079
        k : 0.789371 .. 0.789371

    Block 605 cell size :
        i : 0.1585 .. 0.1585
        j : 0.0495 .. 0.0495
        k : 0.776498 .. 0.776498

    Block 606 cell size :
        i : 0.1585 .. 0.1585
        j : 0.0500104 .. 0.0500104
        k : 0.855032 .. 0.855032

    Block 607 cell size :
        i : 0.1585 .. 0.1585
        j : 0.0504998 .. 0.0504998
        k : 0.774007 .. 0.774007

    Block 608 cell size :
        i : 0.152172 .. 0.152172
        j : 0.0499787 .. 0.0499787
        k : 0.698093 .. 0.698093

    Block 609 cell size :
        i : 0.0712694 .. 0.0712694
        j : 0.0690079 .. 0.0690079
        k : 0.776498 .. 0.776498

    Block 610 cell size :
        i : 0.1585 .. 0.1585
        j : 0.0495 .. 0.0495
        k : 0.768705 .. 0.768705

    Block 611 cell size :
        i : 0.1585 .. 0.1585
        j : 0.0500104 .. 0.0500104
        k : 0.847236 .. 0.847236

    Block 612 cell size :
        i : 0.1585 .. 0.1585
        j : 0.0504998 .. 0.0504998
        k : 0.766214 .. 0.766214

    Block 613 cell size :
        i : 0.152172 .. 0.152172
        j : 0.0499787 .. 0.0499787
        k : 0.690304 .. 0.690304

    Block 614 cell size :
        i : 0.0712694 .. 0.0712694
        j : 0.0690079 .. 0.0690079
        k : 0.768705 .. 0.768705

    Block 615 cell size :
        i : 0.1585 .. 0.1585
        j : 0.0495 .. 0.0495
        k : 0.766147 .. 0.766147

    Block 616 cell size :
        i : 0.1585 .. 0.1585
        j : 0.0500104 .. 0.0500104
        k : 0.844677 .. 0.844677

    Block 617 cell size :
        i : 0.1585 .. 0.1585
        j : 0.0504998 .. 0.0504998
        k : 0.763656 .. 0.763656

    Block 618 cell size :
        i : 0.152172 .. 0.152172
        j : 0.0499787 .. 0.0499787
        k : 0.687747 .. 0.687747

    Block 619 cell size :
        i : 0.0712694 .. 0.0712694
        j : 0.0690079 .. 0.0690079
        k : 0.766147 .. 0.766147

    Block 620 cell size :
        i : 0.1585 .. 0.1585
        j : 0.0495 .. 0.0495
        k : 0.768875 .. 0.768875

    Block 621 cell size :
        i : 0.1585 .. 0.1585
        j : 0.0500104 .. 0.0500104
        k : 0.847407 .. 0.847407

    Block 622 cell size :
        i : 0.1585 .. 0.1585
        j : 0.0504998 .. 0.0504998
        k : 0.766384 .. 0.766384

    Block 623 cell size :
        i : 0.152172 .. 0.152172
        j : 0.0499787 .. 0.0499787
        k : 0.690474 .. 0.690474

    Block 624 cell size :
        i : 0.0712694 .. 0.0712694
        j : 0.0690079 .. 0.0690079
        k : 0.768875 .. 0.768875

    Block 625 cell size :
        i : 0.1585 .. 0.1585
        j : 0.0495 .. 0.0495
        k : 0.776835 .. 0.776835

    Block 626 cell size :
        i : 0.1585 .. 0.1585
        j : 0.0500104 .. 0.0500104
        k : 0.855369 .. 0.855369

    Block 627 cell size :
        i : 0.1585 .. 0.1585
        j : 0.0504998 .. 0.0504998
        k : 0.774344 .. 0.774344

    Block 628 cell size :
        i : 0.152172 .. 0.152172
        j : 0.0499787 .. 0.0499787
        k : 0.69843 .. 0.69843

[...]
        k : 0.76751 .. 0.76751

    Block 1440 cell size :
        i : 0.1585 .. 0.1585
        j : 0.0495 .. 0.0495
        k : 0.766868 .. 0.766868

    Block 1441 cell size :
        i : 0.1585 .. 0.1585
        j : 0.0500104 .. 0.0500104
        k : 0.845399 .. 0.845399

    Block 1442 cell size :
        i : 0.1585 .. 0.1585
        j : 0.0504998 .. 0.0504998
        k : 0.764377 .. 0.764377

    Block 1443 cell size :
        i : 0.152172 .. 0.152172
        j : 0.0499787 .. 0.0499787
        k : 0.688467 .. 0.688467

    Block 1444 cell size :
        i : 0.0712694 .. 0.0712694
        j : 0.0690079 .. 0.0690079
        k : 0.766868 .. 0.766868

    Block 1445 cell size :
        i : 0.1585 .. 0.1585
        j : 0.0495 .. 0.0495
        k : 0.771471 .. 0.771471

    Block 1446 cell size :
        i : 0.1585 .. 0.1585
        j : 0.0500104 .. 0.0500104
        k : 0.850003 .. 0.850003

    Block 1447 cell size :
        i : 0.1585 .. 0.1585
        j : 0.0504998 .. 0.0504998
        k : 0.768979 .. 0.768979

    Block 1448 cell size :
        i : 0.152172 .. 0.152172
        j : 0.0499787 .. 0.0499787
        k : 0.693067 .. 0.693067

    Block 1449 cell size :
        i : 0.0712694 .. 0.0712694
        j : 0.0690079 .. 0.0690079
        k : 0.771471 .. 0.771471

    Block 1450 cell size :
        i : 0.1585 .. 0.1585
        j : 0.0495 .. 0.0495
        k : 0.781226 .. 0.781226

    Block 1451 cell size :
        i : 0.1585 .. 0.1585
        j : 0.0500104 .. 0.0500104
        k : 0.859763 .. 0.859763

    Block 1452 cell size :
        i : 0.1585 .. 0.1585
        j : 0.0504998 .. 0.0504998
        k : 0.778734 .. 0.778734

    Block 1453 cell size :
        i : 0.152172 .. 0.152172
        j : 0.0499787 .. 0.0499787
        k : 0.702816 .. 0.702816

    Block 1454 cell size :
        i : 0.0712694 .. 0.0712694
        j : 0.0690079 .. 0.0690079
        k : 0.781226 .. 0.781226

    Block 1455 cell size :
        i : 0.1585 .. 0.1585
        j : 0.0495 .. 0.0495
        k : 0.795943 .. 0.795943

    Block 1456 cell size :
        i : 0.1585 .. 0.1585
        j : 0.0500104 .. 0.0500104
        k : 0.874488 .. 0.874488

    Block 1457 cell size :
        i : 0.1585 .. 0.1585
        j : 0.0504998 .. 0.0504998
        k : 0.793452 .. 0.793452

    Block 1458 cell size :
        i : 0.152172 .. 0.152172
        j : 0.0499787 .. 0.0499787
        k : 0.717524 .. 0.717524

    Block 1459 cell size :
        i : 0.0712694 .. 0.0712694
        j : 0.0690079 .. 0.0690079
        k : 0.795943 .. 0.795943

    Block 1460 cell size :
        i : 0.1585 .. 0.1585
        j : 0.0495 .. 0.0495
        k : 0.815355 .. 0.815355

    Block 1461 cell size :
        i : 0.1585 .. 0.1585
        j : 0.0500104 .. 0.0500104
        k : 0.893911 .. 0.893911

    Block 1462 cell size :
        i : 0.1585 .. 0.1585
        j : 0.0504998 .. 0.0504998
        k : 0.812863 .. 0.812863

    Block 1463 cell size :
        i : 0.152172 .. 0.152172
        j : 0.0499787 .. 0.0499787
        k : 0.736921 .. 0.736921

    Block 1464 cell size :
        i : 0.0712694 .. 0.0712694
        j : 0.0690079 .. 0.0690079
        k : 0.815355 .. 0.815355

    Block 1465 cell size :
        i : 0.1585 .. 0.1585
        j : 0.0495 .. 0.0495
        k : 0.825924 .. 0.825924

    Block 1466 cell size :
        i : 0.1585 .. 0.1585
        j : 0.0500104 .. 0.0500104
        k : 0.904484 .. 0.904484

    Block 1467 cell size :
        i : 0.1585 .. 0.1585
        j : 0.0504998 .. 0.0504998
        k : 0.823432 .. 0.823432

    Block 1468 cell size :
        i : 0.152172 .. 0.152172
        j : 0.0499787 .. 0.0499787
        k : 0.747484 .. 0.747484

    Block 1469 cell size :
        i : 0.0712694 .. 0.0712694
        j : 0.0690079 .. 0.0690079
        k : 0.825924 .. 0.825924

    Block 1470 cell size :
        i : 0.1585 .. 0.1585
        j : 0.0495 .. 0.0495
        k : 0.805784 .. 0.805784

    Block 1471 cell size :
        i : 0.1585 .. 0.1585
        j : 0.0500104 .. 0.0500104
        k : 0.884333 .. 0.884333

    Block 1472 cell size :
        i : 0.1585 .. 0.1585
        j : 0.0504998 .. 0.0504998
        k : 0.803292 .. 0.803292

    Block 1473 cell size :
        i : 0.152172 .. 0.152172
        j : 0.0499787 .. 0.0499787
        k : 0.727358 .. 0.727358

    Block 1474 cell size :
        i : 0.0712694 .. 0.0712694
        j : 0.0690079 .. 0.0690079
        k : 0.805784 .. 0.805784

    Block 1475 cell size :
        i : 0.1585 .. 0.1585
        j : 0.0495 .. 0.0495
        k : 0.788496 .. 0.788496

    Block 1476 cell size :
        i : 0.1585 .. 0.1585
        j : 0.0500104 .. 0.0500104
        k : 0.867037 .. 0.867037

    Block 1477 cell size :
        i : 0.1585 .. 0.1585
        j : 0.0504998 .. 0.0504998
        k : 0.786005 .. 0.786005

    Block 1478 cell size :
        i : 0.152172 .. 0.152172
        j : 0.0499787 .. 0.0499787
        k : 0.710083 .. 0.710083

    Block 1479 cell size :
        i : 0.0712694 .. 0.0712694
        j : 0.0690079 .. 0.0690079
        k : 0.788496 .. 0.788496

    Block 1480 cell size :
        i : 0.1585 .. 0.1585
        j : 0.0495 .. 0.0495
        k : 0.776264 .. 0.776264

    Block 1481 cell size :
        i : 0.1585 .. 0.1585
        j : 0.0500104 .. 0.0500104
        k : 0.854799 .. 0.854799

    Block 1482 cell size :
        i : 0.1585 .. 0.1585
        j : 0.0504998 .. 0.0504998
        k : 0.773773 .. 0.773773

    Block 1483 cell size :
        i : 0.152172 .. 0.152172
        j : 0.0499787 .. 0.0499787
        k : 0.697857 .. 0.697857

    Block 1484 cell size :
        i : 0.0712694 .. 0.0712694
        j : 0.0690079 .. 0.0690079
        k : 0.776264 .. 0.776264

    Block 1485 cell size :
        i : 0.1585 .. 0.1585
        j : 0.0495 .. 0.0495
        k : 0.769327 .. 0.769327

    Block 1486 cell size :
        i : 0.1585 .. 0.1585
        j : 0.0500104 .. 0.0500104
        k : 0.84786 .. 0.84786

    Block 1487 cell size :
        i : 0.1585 .. 0.1585
        j : 0.0504998 .. 0.0504998
        k : 0.766836 .. 0.766836

    Block 1488 cell size :
        i : 0.152172 .. 0.152172
        j : 0.0499787 .. 0.0499787
        k : 0.690925 .. 0.690925

    Block 1489 cell size :
        i : 0.0712694 .. 0.0712694
        j : 0.0690079 .. 0.0690079
        k : 0.769327 .. 0.769327

    Block 1490 cell size :
        i : 0.1585 .. 0.1585
        j : 0.0495 .. 0.0495
        k : 0.767831 .. 0.767831

    Block 1491 cell size :
        i : 0.1585 .. 0.1585
        j : 0.0500104 .. 0.0500104
        k : 0.846361 .. 0.846361

    Block 1492 cell size :
        i : 0.1585 .. 0.1585
        j : 0.0504998 .. 0.0504998
        k : 0.765339 .. 0.765339

    Block 1493 cell size :
        i : 0.152172 .. 0.152172
        j : 0.0499787 .. 0.0499787
        k : 0.689431 .. 0.689431

    Block 1494 cell size :
        i : 0.0712694 .. 0.0712694
        j : 0.0690079 .. 0.0690079
        k : 0.767831 .. 0.767831

    Block 1495 cell size :
        i : 0.1585 .. 0.1585
        j : 0.0495 .. 0.0495
        k : 0.771805 .. 0.771805

    Block 1496 cell size :
        i : 0.1585 .. 0.1585
        j : 0.0500104 .. 0.0500104
        k : 0.850334 .. 0.850334

    Block 1497 cell size :
        i : 0.1585 .. 0.1585
        j : 0.0504998 .. 0.0504998
        k : 0.769314 .. 0.769314

    Block 1498 cell size :
        i : 0.152172 .. 0.152172
        j : 0.0499787 .. 0.0499787
        k : 0.693406 .. 0.693406

    Block 1499 cell size :
        i : 0.0712694 .. 0.0712694
        j : 0.0690079 .. 0.0690079
        k : 0.771805 .. 0.771805

    Block 1500 cell size :
        i : 0.1585 .. 0.1585
        j : 0.0495 .. 0.0495
        k : 0.781167 .. 0.781167

    Block 1501 cell size :
        i : 0.1585 .. 0.1585
        j : 0.0500104 .. 0.0500104
        k : 0.859697 .. 0.859697

    Block 1502 cell size :
        i : 0.1585 .. 0.1585
        j : 0.0504998 .. 0.0504998
        k : 0.778676 .. 0.778676

    Block 1503 cell size :
        i : 0.152172 .. 0.152172
        j : 0.0499787 .. 0.0499787
        k : 0.702767 .. 0.702767

    Block 1504 cell size :
        i : 0.0712694 .. 0.0712694
        j : 0.0690079 .. 0.0690079
        k : 0.781167 .. 0.781167

    Block 1505 cell size :
        i : 0.1585 .. 0.1585
        j : 0.0495 .. 0.0495
        k : 0.795726 .. 0.795726

    Block 1506 cell size :
        i : 0.1585 .. 0.1585
        j : 0.0500104 .. 0.0500104
        k : 0.874262 .. 0.874262

    Block 1507 cell size :
        i : 0.1585 .. 0.1585
        j : 0.0504998 .. 0.0504998
        k : 0.793235 .. 0.793235

    Block 1508 cell size :
        i : 0.152172 .. 0.152172
        j : 0.0499787 .. 0.0499787
        k : 0.717319 .. 0.717319

    Block 1509 cell size :
        i : 0.0712694 .. 0.0712694
        j : 0.0690079 .. 0.0690079
        k : 0.795726 .. 0.795726

    Block 1510 cell size :
        i : 0.1585 .. 0.1585
        j : 0.0495 .. 0.0495
        k : 0.815205 .. 0.815205

    Block 1511 cell size :
        i : 0.1585 .. 0.1585
        j : 0.0500104 .. 0.0500104
        k : 0.893752 .. 0.893752

    Block 1512 cell size :
        i : 0.1585 .. 0.1585
        j : 0.0504998 .. 0.0504998
        k : 0.812713 .. 0.812713

    Block 1513 cell size :
        i : 0.152172 .. 0.152172
        j : 0.0499787 .. 0.0499787
        k : 0.736782 .. 0.736782

    Block 1514 cell size :
        i : 0.0712694 .. 0.0712694
        j : 0.0690079 .. 0.0690079
        k : 0.815205 .. 0.815205

    Block 1515 cell size :
        i : 0.1585 .. 0.1585
        j : 0.0495 .. 0.0495
        k : 0.833945 .. 0.833945

    Block 1516 cell size :
        i : 0.1585 .. 0.1585
        j : 0.0500104 .. 0.0500104
        k : 0.912506 .. 0.912506

    Block 1517 cell size :
        i : 0.1585 .. 0.1585
        j : 0.0504998 .. 0.0504998
        k : 0.831453 .. 0.831453

    Block 1518 cell size :
        i : 0.152172 .. 0.152172
        j : 0.0499787 .. 0.0499787
        k : 0.755503 .. 0.755503

    Block 1519 cell size :
        i : 0.0712694 .. 0.0712694
        j : 0.0690079 .. 0.0690079
        k : 0.833945 .. 0.833945

    Block 1520 cell size :
        i : 0.1585 .. 0.1585
        j : 0.0495 .. 0.0495
        k : 0.814811 .. 0.814811

    Block 1521 cell size :
        i : 0.1585 .. 0.1585
        j : 0.0500104 .. 0.0500104
        k : 0.893366 .. 0.893366

    Block 1522 cell size :
        i : 0.1585 .. 0.1585
        j : 0.0504998 .. 0.0504998
        k : 0.812318 .. 0.812318

    Block 1523 cell size :
        i : 0.152172 .. 0.152172
        j : 0.0499787 .. 0.0499787
        k : 0.736377 .. 0.736377

    Block 1524 cell size :
        i : 0.0712694 .. 0.0712694
        j : 0.0690079 .. 0.0690079
        k : 0.814811 .. 0.814811

    Block 1525 cell size :
        i : 0.1585 .. 0.1585
        j : 0.0495 .. 0.0495
        k : 0.79049 .. 0.79049

    Block 1526 cell size :
        i : 0.1585 .. 0.1585
        j : 0.0500104 .. 0.0500104
        k : 0.869029 .. 0.869029

    Block 1527 cell size :
        i : 0.1585 .. 0.1585
        j : 0.0504998 .. 0.0504998
        k : 0.787998 .. 0.787998

    Block 1528 cell size :
        i : 0.152172 .. 0.152172
        j : 0.0499787 .. 0.0499787
        k : 0.712077 .. 0.712077

    Block 1529 cell size :
        i : 0.0712694 .. 0.0712694
        j : 0.0690079 .. 0.0690079
        k : 0.79049 .. 0.79049

    Block 1530 cell size :
        i : 0.1585 .. 0.1585
        j : 0.0495 .. 0.0495
        k : 0.77027 .. 0.77027

    Block 1531 cell size :
        i : 0.1585 .. 0.1585
        j : 0.0500104 .. 0.0500104
        k : 0.848794 .. 0.848794

    Block 1532 cell size :
        i : 0.1585 .. 0.1585
        j : 0.0504998 .. 0.0504998
        k : 0.767779 .. 0.767779

    Block 1533 cell size :
        i : 0.152172 .. 0.152172
        j : 0.0499787 .. 0.0499787
        k : 0.691878 .. 0.691878

    Block 1534 cell size :
        i : 0.0712694 .. 0.0712694
        j : 0.0690079 .. 0.0690079
        k : 0.77027 .. 0.77027

    Block 1535 cell size :
        i : 0.1585 .. 0.1585
        j : 0.0495 .. 0.0495
        k : 0.754481 .. 0.754481

    Block 1536 cell size :
        i : 0.1585 .. 0.1585
        j : 0.0500104 .. 0.0500104
        k : 0.832995 .. 0.832995

    Block 1537 cell size :
        i : 0.1585 .. 0.1585
        j : 0.0504998 .. 0.0504998
        k : 0.751991 .. 0.751991

    Block 1538 cell size :
        i : 0.152172 .. 0.152172
        j : 0.0499787 .. 0.0499787
        k : 0.676103 .. 0.676103

    Block 1539 cell size :
        i : 0.0712694 .. 0.0712694
        j : 0.0690079 .. 0.0690079
        k : 0.754481 .. 0.754481

    Block 1540 cell size :
        i : 0.1585 .. 0.1585
        j : 0.0495 .. 0.0495
        k : 0.743406 .. 0.743406

    Block 1541 cell size :
        i : 0.1585 .. 0.1585
        j : 0.0500104 .. 0.0500104
        k : 0.821915 .. 0.821915

    Block 1542 cell size :
        i : 0.1585 .. 0.1585
        j : 0.0504998 .. 0.0504998
        k : 0.740915 .. 0.740915

    Block 1543 cell size :
        i : 0.152172 .. 0.152172
        j : 0.0499787 .. 0.0499787
        k : 0.665034 .. 0.665034

    Block 1544 cell size :
        i : 0.0712694 .. 0.0712694
        j : 0.0690079 .. 0.0690079
        k : 0.743406 .. 0.743406

    Block 1545 cell size :
        i : 0.1585 .. 0.1585
        j : 0.0495 .. 0.0495
        k : 0.737256 .. 0.737256

    Block 1546 cell size :
        i : 0.1585 .. 0.1585
        j : 0.0500104 .. 0.0500104
        k : 0.815765 .. 0.815765

    Block 1547 cell size :
        i : 0.1585 .. 0.1585
        j : 0.0504998 .. 0.0504998
        k : 0.734766 .. 0.734766

    Block 1548 cell size :
        i : 0.152172 .. 0.152172
        j : 0.0499787 .. 0.0499787
        k : 0.658885 .. 0.658885

    Block 1549 cell size :
        i : 0.0712694 .. 0.0712694
        j : 0.0690079 .. 0.0690079
        k : 0.737256 .. 0.737256

    Block 1550 cell size :
        i : 0.1585 .. 0.1585
        j : 0.0495 .. 0.0495
        k : 0.736155 .. 0.736155

    Block 1551 cell size :
        i : 0.1585 .. 0.1585
        j : 0.0500104 .. 0.0500104
        k : 0.814667 .. 0.814667

    Block 1552 cell size :
        i : 0.1585 .. 0.1585
        j : 0.0504998 .. 0.0504998
        k : 0.733665 .. 0.733665

    Block 1553 cell size :
        i : 0.152172 .. 0.152172
        j : 0.0499787 .. 0.0499787
        k : 0.657782 .. 0.657782

    Block 1554 cell size :
        i : 0.0712694 .. 0.0712694
        j : 0.0690079 .. 0.0690079
        k : 0.736155 .. 0.736155

    Block 1555 cell size :
        i : 0.1585 .. 0.1585
        j : 0.0495 .. 0.0495
        k : 0.740127 .. 0.740127

    Block 1556 cell size :
        i : 0.1585 .. 0.1585
        j : 0.0500104 .. 0.0500104
        k : 0.818642 .. 0.818642

    Block 1557 cell size :
        i : 0.1585 .. 0.1585
        j : 0.0504998 .. 0.0504998
        k : 0.737636 .. 0.737636

    Block 1558 cell size :
        i : 0.152172 .. 0.152172
        j : 0.0499787 .. 0.0499787
        k : 0.661748 .. 0.661748

    Block 1559 cell size :
        i : 0.0712694 .. 0.0712694
        j : 0.0690079 .. 0.0690079
        k : 0.740127 .. 0.740127

    Block 1560 cell size :
        i : 0.1585 .. 0.1585
        j : 0.0495 .. 0.0495
        k : 0.749089 .. 0.749089

    Block 1561 cell size :
        i : 0.1585 .. 0.1585
        j : 0.0500104 .. 0.0500104
        k : 0.82761 .. 0.82761

    Block 1562 cell size :
        i : 0.1585 .. 0.1585
        j : 0.0504998 .. 0.0504998
        k : 0.746598 .. 0.746598

    Block 1563 cell size :
        i : 0.152172 .. 0.152172
        j : 0.0499787 .. 0.0499787
        k : 0.670702 .. 0.670702

    Block 1564 cell size :
        i : 0.0712694 .. 0.0712694
        j : 0.0690079 .. 0.0690079
        k : 0.749089 .. 0.749089

    Block 1565 cell size :
        i : 0.1585 .. 0.1585
        j : 0.0495 .. 0.0495
        k : 0.762866 .. 0.762866

    Block 1566 cell size :
        i : 0.1585 .. 0.1585
        j : 0.0500104 .. 0.0500104
        k : 0.841395 .. 0.841395

    Block 1567 cell size :
        i : 0.1585 .. 0.1585
        j : 0.0504998 .. 0.0504998
        k : 0.760375 .. 0.760375

    Block 1568 cell size :
        i : 0.152172 .. 0.152172
        j : 0.0499787 .. 0.0499787
        k : 0.684469 .. 0.684469

    Block 1569 cell size :
        i : 0.0712694 .. 0.0712694
        j : 0.0690079 .. 0.0690079
        k : 0.762866 .. 0.762866

    Block 1570 cell size :
        i : 0.1585 .. 0.1585
        j : 0.0495 .. 0.0495
        k : 0.781204 .. 0.781204

    Block 1571 cell size :
        i : 0.1585 .. 0.1585
        j : 0.0500104 .. 0.0500104
        k : 0.859743 .. 0.859743

    Block 1572 cell size :
        i : 0.1585 .. 0.1585
        j : 0.0504998 .. 0.0504998
        k : 0.778713 .. 0.778713

    Block 1573 cell size :
        i : 0.152172 .. 0.152172
        j : 0.0499787 .. 0.0499787
        k : 0.702793 .. 0.702793

    Block 1574 cell size :
        i : 0.0712694 .. 0.0712694
        j : 0.0690079 .. 0.0690079
        k : 0.781204 .. 0.781204

    Block 1575 cell size :
        i : 0.1585 .. 0.1585
        j : 0.0495 .. 0.0495
        k : 0.803791 .. 0.803791

    Block 1576 cell size :
        i : 0.1585 .. 0.1585
        j : 0.0500104 .. 0.0500104
        k : 0.882338 .. 0.882338

    Block 1577 cell size :
        i : 0.1585 .. 0.1585
        j : 0.0504998 .. 0.0504998
        k : 0.801299 .. 0.801299

    Block 1578 cell size :
        i : 0.152172 .. 0.152172
        j : 0.0499787 .. 0.0499787
        k : 0.725368 .. 0.725368

    Block 1579 cell size :
        i : 0.0712694 .. 0.0712694
        j : 0.0690079 .. 0.0690079
        k : 0.803791 .. 0.803791

    Block 1580 cell size :
        i : 0.1585 .. 0.1585
        j : 0.0495 .. 0.0495
        k : 0.830279 .. 0.830279

    Block 1581 cell size :
        i : 0.1585 .. 0.1585
        j : 0.0500104 .. 0.0500104
        k : 0.908827 .. 0.908827

    Block 1582 cell size :
        i : 0.1585 .. 0.1585
        j : 0.0504998 .. 0.0504998
        k : 0.827787 .. 0.827787

    Block 1583 cell size :
        i : 0.152172 .. 0.152172
        j : 0.0499787 .. 0.0499787
        k : 0.751853 .. 0.751853

    Block 1584 cell size :
        i : 0.0712694 .. 0.0712694
        j : 0.0690079 .. 0.0690079
        k : 0.830279 .. 0.830279

    Block 1585 cell size :
        i : 0.1585 .. 0.1585
        j : 0.0495 .. 0.0495
        k : 0.860308 .. 0.860308

    Block 1586 cell size :
        i : 0.1585 .. 0.1585
        j : 0.0500104 .. 0.0500104
        k : 0.938837 .. 0.938837

    Block 1587 cell size :
        i : 0.1585 .. 0.1585
        j : 0.0504998 .. 0.0504998
        k : 0.857817 .. 0.857817

    Block 1588 cell size :
        i : 0.152172 .. 0.152172
        j : 0.0499787 .. 0.0499787
        k : 0.781904 .. 0.781904

    Block 1589 cell size :
        i : 0.0712694 .. 0.0712694
        j : 0.0690079 .. 0.0690079
        k : 0.860308 .. 0.860308

    Block 1590 cell size :
        i : 0.1585 .. 0.1585
        j : 0.0495 .. 0.0495
        k : 0.893522 .. 0.893522

    Block 1591 cell size :
        i : 0.1585 .. 0.1585
        j : 0.0500104 .. 0.0500104
        k : 0.971997 .. 0.971997

    Block 1592 cell size :
        i : 0.1585 .. 0.1585
        j : 0.0504998 .. 0.0504998
        k : 0.891033 .. 0.891033

    Block 1593 cell size :
        i : 0.152172 .. 0.152172
        j : 0.0499787 .. 0.0499787
        k : 0.815181 .. 0.815181

    Block 1594 cell size :
        i : 0.0712694 .. 0.0712694
        j : 0.0690079 .. 0.0690079
        k : 0.893522 .. 0.893522


There are no merge patch pairs

Writing polyMesh with 0 cellZones
----------------
Mesh Information
----------------
  boundingBox: (-20.9954 -10.9961 -0.999497) (0.999874 10.9961 20.3921)
  nPoints: 166720
  nCells: 159500
  nFaces: 485380
  nInternalFaces: 471620
----------------
Patches
----------------
  patch 0 (start: 471620 size: 500) name: outlet
  patch 1 (start: 472120 size: 12760) name: walls
  patch 2 (start: 484880 size: 500) name: inlet

End

