/*---------------------------------------------------------------------------*\
| =========                 |                                                 |
| \\      /  F ield         | OpenFOAM: The Open Source CFD Toolbox           |
|  \\    /   O peration     | Version:  2012                                  |
|   \\  /    A nd           | Website:  www.openfoam.com                      |
|    \\/     M anipulation  |                                                 |
\*---------------------------------------------------------------------------*/
Build  : _269d0ffd5c-20210619 OPENFOAM=2012 patch=210618
Arch   : "LSB;label=32;scalar=64"
Exec   : blockMesh
Date   : Jul 11 2022
Time   : 19:00:33
Host   : f485359ed3ce
PID    : 14097
I/O    : uncollated
Case   : /root/pulsed-reactor-optimisation/mesh_generation/coil_basic
nProcs : 1
trapFpe: Floating point exception trapping enabled (FOAM_SIGFPE).
fileModificationChecking : Monitoring run-time modified files using timeStampMaster (fileModificationSkew 5, maxFileModificationPolls 20)
allowSystemOperations : Allowing user-supplied system call operations

// * * * * * * * * * * * * * * * * * * * * * * * * * * * * * * * * * * * * * //
Create time

Creating block mesh from "system/blockMeshDict"
Creating block edges
Creating block faces
Creating topology blocks
Creating topology patches

Creating block mesh topology

Check topology

	Basic statistics
		Number of internal faces : 2062
		Number of boundary faces : 646
		Number of defined boundary faces : 646
		Number of undefined boundary faces : 0
	Checking patch -> block consistency

Creating block offsets
Creating merge list (geometric search)...

Creating polyMesh from blockMesh
Creating patches
Creating cells
Creating points with scale 1
    Block 0 cell size :
        i : 0.07925 .. 0.07925
        j : 0.02475 .. 0.02475
        k : 0.183698 .. 0.183698

    Block 1 cell size :
        i : 0.07925 .. 0.07925
        j : 0.0250052 .. 0.0250052
        k : 0.222525 .. 0.222525

    Block 2 cell size :
        i : 0.07925 .. 0.07925
        j : 0.0252499 .. 0.0252499
        k : 0.182471 .. 0.182471

    Block 3 cell size :
        i : 0.0760862 .. 0.0760862
        j : 0.0249894 .. 0.0249894
        k : 0.145273 .. 0.145273

    Block 4 cell size :
        i : 0.0356347 .. 0.0356347
        j : 0.034504 .. 0.034504
        k : 0.183698 .. 0.183698

    Block 5 cell size :
        i : 0.07925 .. 0.07925
        j : 0.02475 .. 0.02475
        k : 0.176948 .. 0.176948

    Block 6 cell size :
        i : 0.07925 .. 0.07925
        j : 0.0250052 .. 0.0250052
        k : 0.215766 .. 0.215766

    Block 7 cell size :
        i : 0.07925 .. 0.07925
        j : 0.0252499 .. 0.0252499
        k : 0.175721 .. 0.175721

    Block 8 cell size :
        i : 0.0760862 .. 0.0760862
        j : 0.0249894 .. 0.0249894
        k : 0.138555 .. 0.138555

    Block 9 cell size :
        i : 0.0356347 .. 0.0356347
        j : 0.034504 .. 0.034504
        k : 0.176948 .. 0.176948

    Block 10 cell size :
        i : 0.07925 .. 0.07925
        j : 0.02475 .. 0.02475
        k : 0.170817 .. 0.170817

    Block 11 cell size :
        i : 0.07925 .. 0.07925
        j : 0.0250052 .. 0.0250052
        k : 0.209608 .. 0.209608

    Block 12 cell size :
        i : 0.07925 .. 0.07925
        j : 0.0252499 .. 0.0252499
        k : 0.169591 .. 0.169591

    Block 13 cell size :
        i : 0.0760862 .. 0.0760862
        j : 0.0249894 .. 0.0249894
        k : 0.132485 .. 0.132485

    Block 14 cell size :
        i : 0.0356347 .. 0.0356347
        j : 0.034504 .. 0.034504
        k : 0.170817 .. 0.170817

    Block 15 cell size :
        i : 0.07925 .. 0.07925
        j : 0.02475 .. 0.02475
        k : 0.165375 .. 0.165375

    Block 16 cell size :
        i : 0.07925 .. 0.07925
        j : 0.0250052 .. 0.0250052
        k : 0.20413 .. 0.20413

    Block 17 cell size :
        i : 0.07925 .. 0.07925
        j : 0.0252499 .. 0.0252499
        k : 0.164151 .. 0.164151

    Block 18 cell size :
        i : 0.0760862 .. 0.0760862
        j : 0.0249894 .. 0.0249894
        k : 0.127119 .. 0.127119

    Block 19 cell size :
        i : 0.0356347 .. 0.0356347
        j : 0.034504 .. 0.034504
        k : 0.165375 .. 0.165375

    Block 20 cell size :
        i : 0.07925 .. 0.07925
        j : 0.02475 .. 0.02475
        k : 0.160692 .. 0.160692

    Block 21 cell size :
        i : 0.07925 .. 0.07925
        j : 0.0250052 .. 0.0250052
        k : 0.199409 .. 0.199409

    Block 22 cell size :
        i : 0.07925 .. 0.07925
        j : 0.0252499 .. 0.0252499
        k : 0.15947 .. 0.15947

    Block 23 cell size :
        i : 0.0760862 .. 0.0760862
        j : 0.0249894 .. 0.0249894
        k : 0.122517 .. 0.122517

    Block 24 cell size :
        i : 0.0356347 .. 0.0356347
        j : 0.034504 .. 0.034504
        k : 0.160692 .. 0.160692

    Block 25 cell size :
        i : 0.07925 .. 0.07925
        j : 0.02475 .. 0.02475
        k : 0.156836 .. 0.156836

    Block 26 cell size :
        i : 0.07925 .. 0.07925
        j : 0.0250052 .. 0.0250052
        k : 0.195517 .. 0.195517

    Block 27 cell size :
        i : 0.07925 .. 0.07925
        j : 0.0252499 .. 0.0252499
        k : 0.155615 .. 0.155615

    Block 28 cell size :
        i : 0.0760862 .. 0.0760862
        j : 0.0249894 .. 0.0249894
        k : 0.118735 .. 0.118735

    Block 29 cell size :
        i : 0.0356347 .. 0.0356347
        j : 0.0345039 .. 0.0345039
        k : 0.156836 .. 0.156836

    Block 30 cell size :
        i : 0.07925 .. 0.07925
        j : 0.02475 .. 0.02475
        k : 0.153869 .. 0.153869

    Block 31 cell size :
        i : 0.07925 .. 0.07925
        j : 0.0250052 .. 0.0250052
        k : 0.19252 .. 0.19252

    Block 32 cell size :
        i : 0.07925 .. 0.07925
        j : 0.0252499 .. 0.0252499
        k : 0.15265 .. 0.15265

    Block 33 cell size :
        i : 0.0760862 .. 0.0760862
        j : 0.0249894 .. 0.0249894
        k : 0.11583 .. 0.11583

    Block 34 cell size :
        i : 0.0356347 .. 0.0356347
        j : 0.034504 .. 0.034504
        k : 0.153869 .. 0.153869

    Block 35 cell size :
        i : 0.07925 .. 0.07925
        j : 0.02475 .. 0.02475
        k : 0.151843 .. 0.151843

    Block 36 cell size :
        i : 0.07925 .. 0.07925
        j : 0.0250052 .. 0.0250052
        k : 0.190473 .. 0.190473

    Block 37 cell size :
        i : 0.07925 .. 0.07925
        j : 0.0252499 .. 0.0252499
        k : 0.150624 .. 0.150624

    Block 38 cell size :
        i : 0.0760862 .. 0.0760862
        j : 0.0249894 .. 0.0249894
        k : 0.113849 .. 0.113849

    Block 39 cell size :
        i : 0.0356347 .. 0.0356347
        j : 0.034504 .. 0.034504
        k : 0.151843 .. 0.151843

    Block 40 cell size :
        i : 0.07925 .. 0.07925
        j : 0.02475 .. 0.02475
        k : 0.150795 .. 0.150795

    Block 41 cell size :
        i : 0.07925 .. 0.07925
        j : 0.0250052 .. 0.0250052
        k : 0.189415 .. 0.189415

    Block 42 cell size :
        i : 0.07925 .. 0.07925
        j : 0.0252499 .. 0.0252499
        k : 0.149578 .. 0.149578

    Block 43 cell size :
        i : 0.0760862 .. 0.0760862
        j : 0.0249894 .. 0.0249894
        k : 0.112827 .. 0.112827

    Block 44 cell size :
        i : 0.0356347 .. 0.0356347
        j : 0.034504 .. 0.034504
        k : 0.150795 .. 0.150795

    Block 45 cell size :
        i : 0.07925 .. 0.07925
        j : 0.02475 .. 0.02475
        k : 0.150748 .. 0.150748

    Block 46 cell size :
        i : 0.07925 .. 0.07925
        j : 0.0250052 .. 0.0250052
        k : 0.189365 .. 0.189365

    Block 47 cell size :
        i : 0.07925 .. 0.07925
        j : 0.0252499 .. 0.0252499
        k : 0.14953 .. 0.14953

    Block 48 cell size :
        i : 0.0760862 .. 0.0760862
        j : 0.0249894 .. 0.0249894
        k : 0.112783 .. 0.112783

    Block 49 cell size :
        i : 0.0356347 .. 0.0356347
        j : 0.034504 .. 0.034504
        k : 0.150748 .. 0.150748

    Block 50 cell size :
        i : 0.07925 .. 0.07925
        j : 0.02475 .. 0.02475
        k : 0.1517 .. 0.1517

    Block 51 cell size :
        i : 0.07925 .. 0.07925
        j : 0.0250052 .. 0.0250052
        k : 0.190326 .. 0.190326

    Block 52 cell size :
        i : 0.07925 .. 0.07925
        j : 0.0252499 .. 0.0252499
        k : 0.150482 .. 0.150482

    Block 53 cell size :
        i : 0.0760862 .. 0.0760862
        j : 0.0249894 .. 0.0249894
        k : 0.113716 .. 0.113716

    Block 54 cell size :
        i : 0.0356347 .. 0.0356347
        j : 0.034504 .. 0.034504
        k : 0.1517 .. 0.1517

    Block 55 cell size :
        i : 0.07925 .. 0.07925
        j : 0.02475 .. 0.02475
        k : 0.153634 .. 0.153634

    Block 56 cell size :
        i : 0.07925 .. 0.07925
        j : 0.0250052 .. 0.0250052
        k : 0.192279 .. 0.192279

    Block 57 cell size :
        i : 0.07925 .. 0.07925
        j : 0.0252499 .. 0.0252499
        k : 0.152415 .. 0.152415

    Block 58 cell size :
        i : 0.0760862 .. 0.0760862
        j : 0.0249894 .. 0.0249894
        k : 0.115609 .. 0.115609

    Block 59 cell size :
        i : 0.0356347 .. 0.0356347
        j : 0.034504 .. 0.034504
        k : 0.153634 .. 0.153634

    Block 60 cell size :
        i : 0.07925 .. 0.07925
        j : 0.02475 .. 0.02475
        k : 0.156514 .. 0.156514

    Block 61 cell size :
        i : 0.07925 .. 0.07925
        j : 0.0250052 .. 0.0250052
        k : 0.195187 .. 0.195187

    Block 62 cell size :
        i : 0.07925 .. 0.07925
        j : 0.0252499 .. 0.0252499
        k : 0.155294 .. 0.155294

    Block 63 cell size :
        i : 0.0760862 .. 0.0760862
        j : 0.0249894 .. 0.0249894
        k : 0.118428 .. 0.118428

    Block 64 cell size :
        i : 0.0356347 .. 0.0356347
        j : 0.034504 .. 0.034504
        k : 0.156514 .. 0.156514

    Block 65 cell size :
        i : 0.07925 .. 0.07925
        j : 0.02475 .. 0.02475
        k : 0.160288 .. 0.160288

    Block 66 cell size :
        i : 0.07925 .. 0.07925
        j : 0.0250052 .. 0.0250052
        k : 0.198998 .. 0.198998

    Block 67 cell size :
        i : 0.07925 .. 0.07925
        j : 0.0252499 .. 0.0252499
        k : 0.159066 .. 0.159066

    Block 68 cell size :
        i : 0.0760862 .. 0.0760862
        j : 0.0249894 .. 0.0249894
        k : 0.122125 .. 0.122125

    Block 69 cell size :
        i : 0.0356347 .. 0.0356347
        j : 0.034504 .. 0.034504
        k : 0.160288 .. 0.160288

    Block 70 cell size :
        i : 0.07925 .. 0.07925
        j : 0.02475 .. 0.02475
        k : 0.164895 .. 0.164895

    Block 71 cell size :
        i : 0.07925 .. 0.07925
        j : 0.0250052 .. 0.0250052
        k : 0.203647 .. 0.203647

    Block 72 cell size :
        i : 0.07925 .. 0.07925
        j : 0.0252499 .. 0.0252499
        k : 0.163671 .. 0.163671

    Block 73 cell size :
        i : 0.0760862 .. 0.0760862
        j : 0.0249894 .. 0.0249894
        k : 0.126645 .. 0.126645

    Block 74 cell size :
        i : 0.0356347 .. 0.0356347
        j : 0.034504 .. 0.034504
        k : 0.164895 .. 0.164895

    Block 75 cell size :
        i : 0.07925 .. 0.07925
        j : 0.02475 .. 0.02475
        k : 0.17021 .. 0.17021

    Block 76 cell size :
        i : 0.07925 .. 0.07925
        j : 0.0250052 .. 0.0250052
        k : 0.209005 .. 0.209005

    Block 77 cell size :
        i : 0.07925 .. 0.07925
        j : 0.0252499 .. 0.0252499
        k : 0.168985 .. 0.168985

    Block 78 cell size :
        i : 0.0760862 .. 0.0760862
        j : 0.0249894 .. 0.0249894
        k : 0.131874 .. 0.131874

    Block 79 cell size :
        i : 0.0356347 .. 0.0356347
        j : 0.034504 .. 0.034504
        k : 0.17021 .. 0.17021

    Block 80 cell size :
        i : 0.07925 .. 0.07925
        j : 0.02475 .. 0.02475
        k : 0.169523 .. 0.169523

    Block 81 cell size :
        i : 0.07925 .. 0.07925
        j : 0.0250052 .. 0.0250052
        k : 0.20831 .. 0.20831

    Block 82 cell size :
        i : 0.07925 .. 0.07925
        j : 0.0252499 .. 0.0252499
        k : 0.168298 .. 0.168298

    Block 83 cell size :
        i : 0.0760862 .. 0.0760862
        j : 0.0249894 .. 0.0249894
        k : 0.131203 .. 0.131203

    Block 84 cell size :
        i : 0.0356347 .. 0.0356347
        j : 0.034504 .. 0.034504
        k : 0.169523 .. 0.169523

    Block 85 cell size :
        i : 0.07925 .. 0.07925
        j : 0.02475 .. 0.02475
        k : 0.165073 .. 0.165073

    Block 86 cell size :
        i : 0.07925 .. 0.07925
        j : 0.0250052 .. 0.0250052
        k : 0.203822 .. 0.203822

    Block 87 cell size :
        i : 0.07925 .. 0.07925
        j : 0.0252499 .. 0.0252499
        k : 0.16385 .. 0.16385

    Block 88 cell size :
        i : 0.0760862 .. 0.0760862
        j : 0.0249894 .. 0.0249894
        k : 0.126828 .. 0.126828

    Block 89 cell size :
        i : 0.0356347 .. 0.0356347
        j : 0.034504 .. 0.034504
        k : 0.165073 .. 0.165073

    Block 90 cell size :
        i : 0.07925 .. 0.07925
        j : 0.02475 .. 0.02475
        k : 0.161565 .. 0.161565

    Block 91 cell size :
        i : 0.07925 .. 0.07925
        j : 0.0250052 .. 0.0250052
        k : 0.200283 .. 0.200283

    Block 92 cell size :
        i : 0.07925 .. 0.07925
        j : 0.0252499 .. 0.0252499
        k : 0.160342 .. 0.160342

    Block 93 cell size :
        i : 0.0760862 .. 0.0760862
        j : 0.0249894 .. 0.0249894
        k : 0.123381 .. 0.123381

    Block 94 cell size :
        i : 0.0356347 .. 0.0356347
        j : 0.034504 .. 0.034504
        k : 0.161565 .. 0.161565

    Block 95 cell size :
        i : 0.07925 .. 0.07925
        j : 0.02475 .. 0.02475
        k : 0.159059 .. 0.159059

    Block 96 cell size :
        i : 0.07925 .. 0.07925
        j : 0.0250052 .. 0.0250052
        k : 0.197757 .. 0.197757

    Block 97 cell size :
        i : 0.07925 .. 0.07925
        j : 0.0252499 .. 0.0252499
        k : 0.157837 .. 0.157837

    Block 98 cell size :
        i : 0.0760862 .. 0.0760862
        j : 0.0249894 .. 0.0249894
        k : 0.12092 .. 0.12092

    Block 99 cell size :
        i : 0.0356347 .. 0.0356347
        j : 0.034504 .. 0.034504
        k : 0.159059 .. 0.159059

    Block 100 cell size :
        i : 0.07925 .. 0.07925
        j : 0.02475 .. 0.02475
        k : 0.157604 .. 0.157604

    Block 101 cell size :
        i : 0.07925 .. 0.07925
        j : 0.0250052 .. 0.0250052
        k : 0.196291 .. 0.196291

    Block 102 cell size :
        i : 0.07925 .. 0.07925
        j : 0.0252499 .. 0.0252499
        k : 0.156383 .. 0.156383

    Block 103 cell size :
        i : 0.0760862 .. 0.0760862
        j : 0.0249894 .. 0.0249894
        k : 0.119491 .. 0.119491

    Block 104 cell size :
        i : 0.0356347 .. 0.0356347
        j : 0.034504 .. 0.034504
        k : 0.157604 .. 0.157604

    Block 105 cell size :
        i : 0.07925 .. 0.07925
        j : 0.02475 .. 0.02475
        k : 0.15723 .. 0.15723

    Block 106 cell size :
        i : 0.07925 .. 0.07925
        j : 0.0250052 .. 0.0250052
        k : 0.195914 .. 0.195914

    Block 107 cell size :
        i : 0.07925 .. 0.07925
        j : 0.0252499 .. 0.0252499
        k : 0.156009 .. 0.156009

    Block 108 cell size :
        i : 0.0760862 .. 0.0760862
        j : 0.0249894 .. 0.0249894
        k : 0.119121 .. 0.119121

    Block 109 cell size :
        i : 0.0356347 .. 0.0356347
        j : 0.034504 .. 0.034504
        k : 0.15723 .. 0.15723

    Block 110 cell size :
        i : 0.07925 .. 0.07925
        j : 0.02475 .. 0.02475
        k : 0.157943 .. 0.157943

    Block 111 cell size :
        i : 0.07925 .. 0.07925
        j : 0.0250052 .. 0.0250052
        k : 0.196635 .. 0.196635

    Block 112 cell size :
        i : 0.07925 .. 0.07925
        j : 0.0252499 .. 0.0252499
        k : 0.156722 .. 0.156722

    Block 113 cell size :
        i : 0.0760862 .. 0.0760862
        j : 0.0249894 .. 0.0249894
        k : 0.11982 .. 0.11982

    Block 114 cell size :
        i : 0.0356347 .. 0.0356347
        j : 0.034504 .. 0.034504
        k : 0.157943 .. 0.157943

    Block 115 cell size :
        i : 0.07925 .. 0.07925
        j : 0.02475 .. 0.02475
        k : 0.15973 .. 0.15973

    Block 116 cell size :
        i : 0.07925 .. 0.07925
        j : 0.0250052 .. 0.0250052
        k : 0.198437 .. 0.198437

    Block 117 cell size :
        i : 0.07925 .. 0.07925
        j : 0.0252499 .. 0.0252499
        k : 0.158508 .. 0.158508

    Block 118 cell size :
        i : 0.0760862 .. 0.0760862
        j : 0.0249894 .. 0.0249894
        k : 0.121573 .. 0.121573

    Block 119 cell size :
        i : 0.0356347 .. 0.0356347
        j : 0.034504 .. 0.034504
        k : 0.15973 .. 0.15973

    Block 120 cell size :
        i : 0.07925 .. 0.07925
        j : 0.02475 .. 0.02475
        k : 0.162555 .. 0.162555

    Block 121 cell size :
        i : 0.07925 .. 0.07925
        j : 0.0250052 .. 0.0250052
        k : 0.201286 .. 0.201286

    Block 122 cell size :
        i : 0.07925 .. 0.07925
        j : 0.0252499 .. 0.0252499
        k : 0.161332 .. 0.161332

    Block 123 cell size :
        i : 0.0760862 .. 0.0760862
        j : 0.0249894 .. 0.0249894
        k : 0.124347 .. 0.124347

    Block 124 cell size :
        i : 0.0356347 .. 0.0356347
        j : 0.034504 .. 0.034504
        k : 0.162555 .. 0.162555

    Block 125 cell size :
        i : 0.07925 .. 0.07925
        j : 0.02475 .. 0.02475
        k : 0.166364 .. 0.166364

    Block 126 cell size :
        i : 0.07925 .. 0.07925
        j : 0.0250052 .. 0.0250052
        k : 0.205128 .. 0.205128

    Block 127 cell size :
        i : 0.07925 .. 0.07925
        j : 0.0252499 .. 0.0252499
        k : 0.16514 .. 0.16514

    Block 128 cell size :
        i : 0.0760862 .. 0.0760862
        j : 0.0249894 .. 0.0249894
        k : 0.12809 .. 0.12809

    Block 129 cell size :
        i : 0.0356347 .. 0.0356347
        j : 0.034504 .. 0.034504
        k : 0.166364 .. 0.166364

    Block 130 cell size :
        i : 0.07925 .. 0.07925
        j : 0.02475 .. 0.02475
        k : 0.169812 .. 0.169812

    Block 131 cell size :
        i : 0.07925 .. 0.07925
        j : 0.0250052 .. 0.0250052
        k : 0.208604 .. 0.208604

    Block 132 cell size :
        i : 0.07925 .. 0.07925
        j : 0.0252499 .. 0.0252499
        k : 0.168587 .. 0.168587

    Block 133 cell size :
        i : 0.0760862 .. 0.0760862
        j : 0.0249894 .. 0.0249894
        k : 0.131482 .. 0.131482

    Block 134 cell size :
        i : 0.0356347 .. 0.0356347
        j : 0.034504 .. 0.034504
        k : 0.169812 .. 0.169812

    Block 135 cell size :
        i : 0.07925 .. 0.07925
        j : 0.02475 .. 0.02475
        k : 0.166422 .. 0.166422

    Block 136 cell size :
        i : 0.07925 .. 0.07925
        j : 0.0250052 .. 0.0250052
        k : 0.205188 .. 0.205188

    Block 137 cell size :
        i : 0.07925 .. 0.07925
        j : 0.0252499 .. 0.0252499
        k : 0.165198 .. 0.165198

    Block 138 cell size :
        i : 0.0760862 .. 0.0760862
        j : 0.0249894 .. 0.0249894
        k : 0.128146 .. 0.128146

    Block 139 cell size :
        i : 0.0356347 .. 0.0356347
        j : 0.034504 .. 0.034504
        k : 0.166422 .. 0.166422

    Block 140 cell size :
        i : 0.07925 .. 0.07925
        j : 0.02475 .. 0.02475
        k : 0.162628 .. 0.162628

    Block 141 cell size :
        i : 0.07925 .. 0.07925
        j : 0.0250052 .. 0.0250052
        k : 0.20136 .. 0.20136

    Block 142 cell size :
        i : 0.07925 .. 0.07925
        j : 0.0252499 .. 0.0252499
        k : 0.161405 .. 0.161405

    Block 143 cell size :
        i : 0.0760862 .. 0.0760862
        j : 0.0249894 .. 0.0249894
        k : 0.124418 .. 0.124418

    Block 144 cell size :
        i : 0.0356347 .. 0.0356347
        j : 0.034504 .. 0.034504
        k : 0.162628 .. 0.162628

    Block 145 cell size :
        i : 0.07925 .. 0.07925
        j : 0.02475 .. 0.02475
        k : 0.159771 .. 0.159771

    Block 146 cell size :
        i : 0.07925 .. 0.07925
        j : 0.0250052 .. 0.0250052
        k : 0.198478 .. 0.198478

    Block 147 cell size :
        i : 0.07925 .. 0.07925
        j : 0.0252499 .. 0.0252499
        k : 0.158549 .. 0.158549

    Block 148 cell size :
        i : 0.0760862 .. 0.0760862
        j : 0.0249894 .. 0.0249894
        k : 0.121614 .. 0.121614

    Block 149 cell size :
        i : 0.0356347 .. 0.0356347
        j : 0.034504 .. 0.034504
        k : 0.159771 .. 0.159771

    Block 150 cell size :
        i : 0.07925 .. 0.07925
        j : 0.02475 .. 0.02475
        k : 0.157904 .. 0.157904

    Block 151 cell size :
        i : 0.07925 .. 0.07925
        j : 0.0250052 .. 0.0250052
        k : 0.196594 .. 0.196594

    Block 152 cell size :
        i : 0.07925 .. 0.07925
        j : 0.0252499 .. 0.0252499
        k : 0.156683 .. 0.156683

    Block 153 cell size :
        i : 0.0760862 .. 0.0760862
        j : 0.0249894 .. 0.0249894
        k : 0.119782 .. 0.119782

    Block 154 cell size :
        i : 0.0356347 .. 0.0356347
        j : 0.034504 .. 0.034504
        k : 0.157904 .. 0.157904

    Block 155 cell size :
        i : 0.07925 .. 0.07925
        j : 0.02475 .. 0.02475
        k : 0.157061 .. 0.157061

    Block 156 cell size :
        i : 0.07925 .. 0.07925
        j : 0.0250052 .. 0.0250052
        k : 0.195744 .. 0.195744

    Block 157 cell size :
        i : 0.07925 .. 0.07925
        j : 0.0252499 .. 0.0252499
        k : 0.15584 .. 0.15584

    Block 158 cell size :
        i : 0.0760862 .. 0.0760862
        j : 0.0249894 .. 0.0249894
        k : 0.118956 .. 0.118956

    Block 159 cell size :
        i : 0.0356347 .. 0.0356347
        j : 0.034504 .. 0.034504
        k : 0.157061 .. 0.157061

    Block 160 cell size :
        i : 0.07925 .. 0.07925
        j : 0.02475 .. 0.02475
        k : 0.15726 .. 0.15726

    Block 161 cell size :
        i : 0.07925 .. 0.07925
        j : 0.0250052 .. 0.0250052
        k : 0.195944 .. 0.195944

    Block 162 cell size :
        i : 0.07925 .. 0.07925
        j : 0.0252499 .. 0.0252499
        k : 0.156039 .. 0.156039

    Block 163 cell size :
        i : 0.0760862 .. 0.0760862
        j : 0.0249894 .. 0.0249894
        k : 0.119151 .. 0.119151

    Block 164 cell size :
        i : 0.0356347 .. 0.0356347
        j : 0.034504 .. 0.034504
        k : 0.15726 .. 0.15726

    Block 165 cell size :
        i : 0.07925 .. 0.07925
        j : 0.02475 .. 0.02475
        k : 0.158496 .. 0.158496

    Block 166 cell size :
        i : 0.07925 .. 0.07925
        j : 0.0250052 .. 0.0250052
        k : 0.197191 .. 0.197191

    Block 167 cell size :
        i : 0.07925 .. 0.07925
        j : 0.0252499 .. 0.0252499
        k : 0.157274 .. 0.157274

    Block 168 cell size :
        i : 0.0760862 .. 0.0760862
        j : 0.0249894 .. 0.0249894
        k : 0.120363 .. 0.120363

    Block 169 cell size :
        i : 0.0356347 .. 0.0356347
        j : 0.034504 .. 0.034504
        k : 0.158496 .. 0.158496

    Block 170 cell size :
        i : 0.07925 .. 0.07925
        j : 0.02475 .. 0.02475
        k : 0.160745 .. 0.160745

    Block 171 cell size :
        i : 0.07925 .. 0.07925
        j : 0.0250052 .. 0.0250052
        k : 0.19946 .. 0.19946

    Block 172 cell size :
        i : 0.07925 .. 0.07925
        j : 0.0252499 .. 0.0252499
        k : 0.159522 .. 0.159522

    Block 173 cell size :
        i : 0.0760862 .. 0.0760862
        j : 0.0249894 .. 0.0249894
        k : 0.12257 .. 0.12257

    Block 174 cell size :
        i : 0.0356347 .. 0.0356347
        j : 0.0345039 .. 0.0345039
        k : 0.160745 .. 0.160745

    Block 175 cell size :
        i : 0.07925 .. 0.07925
        j : 0.02475 .. 0.02475
        k : 0.163965 .. 0.163965

    Block 176 cell size :
        i : 0.07925 .. 0.07925
        j : 0.0250052 .. 0.0250052
        k : 0.202709 .. 0.202709

    Block 177 cell size :
        i : 0.07925 .. 0.07925
        j : 0.0252499 .. 0.0252499
        k : 0.162742 .. 0.162742

    Block 178 cell size :
        i : 0.0760862 .. 0.0760862
        j : 0.0249894 .. 0.0249894
        k : 0.125732 .. 0.125732

    Block 179 cell size :
        i : 0.0356347 .. 0.0356347
        j : 0.034504 .. 0.034504
        k : 0.163965 .. 0.163965

    Block 180 cell size :
        i : 0.07925 .. 0.07925
        j : 0.02475 .. 0.02475
        k : 0.168102 .. 0.168102

    Block 181 cell size :
        i : 0.07925 .. 0.07925
        j : 0.0250052 .. 0.0250052
        k : 0.20688 .. 0.20688

    Block 182 cell size :
        i : 0.07925 .. 0.07925
        j : 0.0252499 .. 0.0252499
        k : 0.166877 .. 0.166877

    Block 183 cell size :
        i : 0.0760862 .. 0.0760862
        j : 0.0249894 .. 0.0249894
        k : 0.129798 .. 0.129798

    Block 184 cell size :
        i : 0.0356347 .. 0.0356347
        j : 0.034504 .. 0.034504
        k : 0.168102 .. 0.168102

    Block 185 cell size :
        i : 0.07925 .. 0.07925
        j : 0.02475 .. 0.02475
        k : 0.168969 .. 0.168969

    Block 186 cell size :
        i : 0.07925 .. 0.07925
        j : 0.0250052 .. 0.0250052
        k : 0.207754 .. 0.207754

    Block 187 cell size :
        i : 0.07925 .. 0.07925
        j : 0.0252499 .. 0.0252499
        k : 0.167743 .. 0.167743

    Block 188 cell size :
        i : 0.0760862 .. 0.0760862
        j : 0.0249894 .. 0.0249894
        k : 0.130651 .. 0.130651

    Block 189 cell size :
        i : 0.0356347 .. 0.0356347
        j : 0.034504 .. 0.034504
        k : 0.168969 .. 0.168969

    Block 190 cell size :
        i : 0.07925 .. 0.07925
        j : 0.02475 .. 0.02475
        k : 0.164676 .. 0.164676

    Block 191 cell size :
        i : 0.07925 .. 0.07925
        j : 0.0250052 .. 0.0250052
        k : 0.203426 .. 0.203426

    Block 192 cell size :
        i : 0.07925 .. 0.07925
        j : 0.0252499 .. 0.0252499
        k : 0.163453 .. 0.163453

    Block 193 cell size :
        i : 0.0760862 .. 0.0760862
        j : 0.0249894 .. 0.0249894
        k : 0.126431 .. 0.126431

    Block 194 cell size :
        i : 0.0356347 .. 0.0356347
        j : 0.034504 .. 0.034504
        k : 0.164676 .. 0.164676

    Block 195 cell size :
        i : 0.07925 .. 0.07925
        j : 0.02475 .. 0.02475
        k : 0.161242 .. 0.161242

    Block 196 cell size :
        i : 0.07925 .. 0.07925
        j : 0.0250052 .. 0.0250052
        k : 0.199962 .. 0.199962

    Block 197 cell size :
        i : 0.07925 .. 0.07925
        j : 0.0252499 .. 0.0252499
        k : 0.160019 .. 0.160019

    Block 198 cell size :
        i : 0.0760862 .. 0.0760862
        j : 0.0249894 .. 0.0249894
        k : 0.123058 .. 0.123058

    Block 199 cell size :
        i : 0.0356347 .. 0.0356347
        j : 0.034504 .. 0.034504
        k : 0.161242 .. 0.161242

    Block 200 cell size :
        i : 0.07925 .. 0.07925
        j : 0.02475 .. 0.02475
        k : 0.158775 .. 0.158775

    Block 201 cell size :
        i : 0.07925 .. 0.07925
        j : 0.0250052 .. 0.0250052
        k : 0.197473 .. 0.197473

    Block 202 cell size :
        i : 0.07925 .. 0.07925
        j : 0.0252499 .. 0.0252499
        k : 0.157553 .. 0.157553

    Block 203 cell size :
        i : 0.0760862 .. 0.0760862
        j : 0.0249894 .. 0.0249894
        k : 0.120637 .. 0.120637

    Block 204 cell size :
        i : 0.0356347 .. 0.0356347
        j : 0.034504 .. 0.034504
        k : 0.158775 .. 0.158775

    Block 205 cell size :
        i : 0.07925 .. 0.07925
        j : 0.02475 .. 0.02475
        k : 0.15732 .. 0.15732

    Block 206 cell size :
        i : 0.07925 .. 0.07925
        j : 0.0250052 .. 0.0250052
        k : 0.196006 .. 0.196006

    Block 207 cell size :
        i : 0.07925 .. 0.07925
        j : 0.0252499 .. 0.0252499
        k : 0.1561 .. 0.1561

    Block 208 cell size :
        i : 0.0760862 .. 0.0760862
        j : 0.0249894 .. 0.0249894
        k : 0.11921 .. 0.11921

    Block 209 cell size :
        i : 0.0356347 .. 0.0356347
        j : 0.034504 .. 0.034504
        k : 0.15732 .. 0.15732

    Block 210 cell size :
        i : 0.07925 .. 0.07925
        j : 0.02475 .. 0.02475
        k : 0.156907 .. 0.156907

    Block 211 cell size :
        i : 0.07925 .. 0.07925
        j : 0.0250052 .. 0.0250052
        k : 0.195589 .. 0.195589

    Block 212 cell size :
        i : 0.07925 .. 0.07925
        j : 0.0252499 .. 0.0252499
        k : 0.155687 .. 0.155687

    Block 213 cell size :
        i : 0.0760862 .. 0.0760862
        j : 0.0249894 .. 0.0249894
        k : 0.118805 .. 0.118805

    Block 214 cell size :
        i : 0.0356347 .. 0.0356347
        j : 0.034504 .. 0.034504
        k : 0.156907 .. 0.156907

    Block 215 cell size :
        i : 0.07925 .. 0.07925
        j : 0.02475 .. 0.02475
        k : 0.157544 .. 0.157544

    Block 216 cell size :
        i : 0.07925 .. 0.07925
        j : 0.0250052 .. 0.0250052
        k : 0.196231 .. 0.196231

    Block 217 cell size :
        i : 0.07925 .. 0.07925
        j : 0.0252499 .. 0.0252499
        k : 0.156323 .. 0.156323

    Block 218 cell size :
        i : 0.0760862 .. 0.0760862
        j : 0.0249894 .. 0.0249894
        k : 0.119429 .. 0.119429

    Block 219 cell size :
        i : 0.0356347 .. 0.0356347
        j : 0.034504 .. 0.034504
        k : 0.157544 .. 0.157544

    Block 220 cell size :
        i : 0.07925 .. 0.07925
        j : 0.02475 .. 0.02475
        k : 0.159217 .. 0.159217

    Block 221 cell size :
        i : 0.07925 .. 0.07925
        j : 0.0250052 .. 0.0250052
        k : 0.197919 .. 0.197919

    Block 222 cell size :
        i : 0.07925 .. 0.07925
        j : 0.0252499 .. 0.0252499
        k : 0.157995 .. 0.157995

    Block 223 cell size :
        i : 0.0760862 .. 0.0760862
        j : 0.0249894 .. 0.0249894
        k : 0.12107 .. 0.12107

    Block 224 cell size :
        i : 0.0356347 .. 0.0356347
        j : 0.034504 .. 0.034504
        k : 0.159217 .. 0.159217

    Block 225 cell size :
        i : 0.07925 .. 0.07925
        j : 0.02475 .. 0.02475
        k : 0.161894 .. 0.161894

    Block 226 cell size :
        i : 0.07925 .. 0.07925
        j : 0.0250052 .. 0.0250052
        k : 0.20062 .. 0.20062

    Block 227 cell size :
        i : 0.07925 .. 0.07925
        j : 0.0252499 .. 0.0252499
        k : 0.160672 .. 0.160672

    Block 228 cell size :
        i : 0.0760862 .. 0.0760862
        j : 0.0249894 .. 0.0249894
        k : 0.123698 .. 0.123698

    Block 229 cell size :
        i : 0.0356347 .. 0.0356347
        j : 0.034504 .. 0.034504
        k : 0.161894 .. 0.161894

    Block 230 cell size :
        i : 0.07925 .. 0.07925
        j : 0.02475 .. 0.02475
        k : 0.165528 .. 0.165528

    Block 231 cell size :
        i : 0.07925 .. 0.07925
        j : 0.0250052 .. 0.0250052
        k : 0.204285 .. 0.204285

    Block 232 cell size :
        i : 0.07925 .. 0.07925
        j : 0.0252499 .. 0.0252499
        k : 0.164304 .. 0.164304

    Block 233 cell size :
        i : 0.0760862 .. 0.0760862
        j : 0.0249894 .. 0.0249894
        k : 0.127267 .. 0.127267

    Block 234 cell size :
        i : 0.0356347 .. 0.0356347
        j : 0.034504 .. 0.034504
        k : 0.165528 .. 0.165528

    Block 235 cell size :
        i : 0.07925 .. 0.07925
        j : 0.02475 .. 0.02475
        k : 0.169596 .. 0.169596

    Block 236 cell size :
        i : 0.07925 .. 0.07925
        j : 0.0250052 .. 0.0250052
        k : 0.208386 .. 0.208386

    Block 237 cell size :
        i : 0.07925 .. 0.07925
        j : 0.0252499 .. 0.0252499
        k : 0.16837 .. 0.16837

    Block 238 cell size :
        i : 0.0760862 .. 0.0760862
        j : 0.0249894 .. 0.0249894
        k : 0.131269 .. 0.131269

    Block 239 cell size :
        i : 0.0356347 .. 0.0356347
        j : 0.034504 .. 0.034504
        k : 0.169596 .. 0.169596

    Block 240 cell size :
        i : 0.07925 .. 0.07925
        j : 0.02475 .. 0.02475
        k : 0.16724 .. 0.16724

    Block 241 cell size :
        i : 0.07925 .. 0.07925
        j : 0.0250052 .. 0.0250052
        k : 0.206012 .. 0.206012

    Block 242 cell size :
        i : 0.07925 .. 0.07925
        j : 0.0252499 .. 0.0252499
        k : 0.166015 .. 0.166015

    Block 243 cell size :
        i : 0.0760862 .. 0.0760862
        j : 0.0249894 .. 0.0249894
        k : 0.128951 .. 0.128951

    Block 244 cell size :
        i : 0.0356347 .. 0.0356347
        j : 0.034504 .. 0.034504
        k : 0.16724 .. 0.16724

    Block 245 cell size :
        i : 0.07925 .. 0.07925
        j : 0.02475 .. 0.02475
        k : 0.163247 .. 0.163247

    Block 246 cell size :
        i : 0.07925 .. 0.07925
        j : 0.0250052 .. 0.0250052
        k : 0.201984 .. 0.201984

    Block 247 cell size :
        i : 0.07925 .. 0.07925
        j : 0.0252499 .. 0.0252499
        k : 0.162024 .. 0.162024

    Block 248 cell size :
        i : 0.0760862 .. 0.0760862
        j : 0.0249894 .. 0.0249894
        k : 0.125027 .. 0.125027

    Block 249 cell size :
        i : 0.0356347 .. 0.0356347
        j : 0.034504 .. 0.034504
        k : 0.163247 .. 0.163247

    Block 250 cell size :
        i : 0.07925 .. 0.07925
        j : 0.02475 .. 0.02475
        k : 0.160186 .. 0.160186

    Block 251 cell size :
        i : 0.07925 .. 0.07925
        j : 0.0250052 .. 0.0250052
        k : 0.198897 .. 0.198897

    Block 252 cell size :
        i : 0.07925 .. 0.07925
        j : 0.0252499 .. 0.0252499
        k : 0.158964 .. 0.158964

    Block 253 cell size :
        i : 0.0760862 .. 0.0760862
        j : 0.0249894 .. 0.0249894
        k : 0.122022 .. 0.122022

    Block 254 cell size :
        i : 0.0356347 .. 0.0356347
        j : 0.034504 .. 0.034504
        k : 0.160186 .. 0.160186

    Block 255 cell size :
        i : 0.07925 .. 0.07925
        j : 0.02475 .. 0.02475
        k : 0.158113 .. 0.158113

    Block 256 cell size :
        i : 0.07925 .. 0.07925
        j : 0.0250052 .. 0.0250052
        k : 0.196805 .. 0.196805

    Block 257 cell size :
        i : 0.07925 .. 0.07925
        j : 0.0252499 .. 0.0252499
        k : 0.156891 .. 0.156891

    Block 258 cell size :
        i : 0.0760862 .. 0.0760862
        j : 0.0249894 .. 0.0249894
        k : 0.119987 .. 0.119987

    Block 259 cell size :
        i : 0.0356347 .. 0.0356347
        j : 0.034504 .. 0.034504
        k : 0.158113 .. 0.158113

    Block 260 cell size :
        i : 0.07925 .. 0.07925
        j : 0.02475 .. 0.02475
        k : 0.157065 .. 0.157065

    Block 261 cell size :
        i : 0.07925 .. 0.07925
        j : 0.0250052 .. 0.0250052
        k : 0.195748 .. 0.195748

    Block 262 cell size :
        i : 0.07925 .. 0.07925
        j : 0.0252499 .. 0.0252499
        k : 0.155844 .. 0.155844

    Block 263 cell size :
        i : 0.0760862 .. 0.0760862
        j : 0.0249894 .. 0.0249894
        k : 0.118959 .. 0.118959

    Block 264 cell size :
        i : 0.0356347 .. 0.0356347
        j : 0.034504 .. 0.034504
        k : 0.157065 .. 0.157065

    Block 265 cell size :
        i : 0.07925 .. 0.07925
        j : 0.02475 .. 0.02475
        k : 0.157064 .. 0.157064

    Block 266 cell size :
        i : 0.07925 .. 0.07925
        j : 0.0250052 .. 0.0250052
        k : 0.195746 .. 0.195746

    Block 267 cell size :
        i : 0.07925 .. 0.07925
        j : 0.0252499 .. 0.0252499
        k : 0.155843 .. 0.155843

    Block 268 cell size :
        i : 0.0760862 .. 0.0760862
        j : 0.0249894 .. 0.0249894
        k : 0.118958 .. 0.118958

    Block 269 cell size :
        i : 0.0356347 .. 0.0356347
        j : 0.034504 .. 0.034504
        k : 0.157064 .. 0.157064

    Block 270 cell size :
        i : 0.07925 .. 0.07925
        j : 0.02475 .. 0.02475
        k : 0.158109 .. 0.158109

    Block 271 cell size :
        i : 0.07925 .. 0.07925
        j : 0.0250052 .. 0.0250052
        k : 0.196801 .. 0.196801

    Block 272 cell size :
        i : 0.07925 .. 0.07925
        j : 0.0252499 .. 0.0252499
        k : 0.156888 .. 0.156888

    Block 273 cell size :
        i : 0.0760862 .. 0.0760862
        j : 0.0249894 .. 0.0249894
        k : 0.119983 .. 0.119983

    Block 274 cell size :
        i : 0.0356347 .. 0.0356347
        j : 0.034504 .. 0.034504
        k : 0.158109 .. 0.158109

    Block 275 cell size :
        i : 0.07925 .. 0.07925
        j : 0.02475 .. 0.02475
        k : 0.16018 .. 0.16018

    Block 276 cell size :
        i : 0.07925 .. 0.07925
        j : 0.0250052 .. 0.0250052
        k : 0.198891 .. 0.198891

    Block 277 cell size :
        i : 0.07925 .. 0.07925
        j : 0.0252499 .. 0.0252499
        k : 0.158958 .. 0.158958

    Block 278 cell size :
        i : 0.0760862 .. 0.0760862
        j : 0.0249894 .. 0.0249894
        k : 0.122016 .. 0.122016

    Block 279 cell size :
        i : 0.0356347 .. 0.0356347
        j : 0.034504 .. 0.034504
        k : 0.16018 .. 0.16018

    Block 280 cell size :
        i : 0.07925 .. 0.07925
        j : 0.02475 .. 0.02475
        k : 0.163238 .. 0.163238

    Block 281 cell size :
        i : 0.07925 .. 0.07925
        j : 0.0250052 .. 0.0250052
        k : 0.201976 .. 0.201976

    Block 282 cell size :
        i : 0.07925 .. 0.07925
        j : 0.0252499 .. 0.0252499
        k : 0.162015 .. 0.162015

    Block 283 cell size :
        i : 0.0760862 .. 0.0760862
        j : 0.0249894 .. 0.0249894
        k : 0.125018 .. 0.125018

    Block 284 cell size :
        i : 0.0356347 .. 0.0356347
        j : 0.0345039 .. 0.0345039
        k : 0.163238 .. 0.163238

    Block 285 cell size :
        i : 0.07925 .. 0.07925
        j : 0.02475 .. 0.02475
        k : 0.167229 .. 0.167229

    Block 286 cell size :
        i : 0.07925 .. 0.07925
        j : 0.0250052 .. 0.0250052
        k : 0.206001 .. 0.206001

    Block 287 cell size :
        i : 0.07925 .. 0.07925
        j : 0.0252499 .. 0.0252499
        k : 0.166005 .. 0.166005

    Block 288 cell size :
        i : 0.0760862 .. 0.0760862
        j : 0.0249894 .. 0.0249894
        k : 0.12894 .. 0.12894

    Block 289 cell size :
        i : 0.0356347 .. 0.0356347
        j : 0.034504 .. 0.034504
        k : 0.167229 .. 0.167229

    Block 290 cell size :
        i : 0.07925 .. 0.07925
        j : 0.02475 .. 0.02475
        k : 0.169585 .. 0.169585

    Block 291 cell size :
        i : 0.07925 .. 0.07925
        j : 0.0250052 .. 0.0250052
        k : 0.208376 .. 0.208376

    Block 292 cell size :
        i : 0.07925 .. 0.07925
        j : 0.0252499 .. 0.0252499
        k : 0.16836 .. 0.16836

    Block 293 cell size :
        i : 0.0760862 .. 0.0760862
        j : 0.0249894 .. 0.0249894
        k : 0.131258 .. 0.131258

    Block 294 cell size :
        i : 0.0356347 .. 0.0356347
        j : 0.034504 .. 0.034504
        k : 0.169585 .. 0.169585

    Block 295 cell size :
        i : 0.07925 .. 0.07925
        j : 0.02475 .. 0.02475
        k : 0.165524 .. 0.165524

    Block 296 cell size :
        i : 0.07925 .. 0.07925
        j : 0.0250052 .. 0.0250052
        k : 0.204282 .. 0.204282

    Block 297 cell size :
        i : 0.07925 .. 0.07925
        j : 0.0252499 .. 0.0252499
        k : 0.1643 .. 0.1643

    Block 298 cell size :
        i : 0.0760862 .. 0.0760862
        j : 0.0249894 .. 0.0249894
        k : 0.127264 .. 0.127264

    Block 299 cell size :
        i : 0.0356347 .. 0.0356347
        j : 0.034504 .. 0.034504
        k : 0.165524 .. 0.165524

    Block 300 cell size :
        i : 0.07925 .. 0.07925
        j : 0.02475 .. 0.02475
        k : 0.161899 .. 0.161899

    Block 301 cell size :
        i : 0.07925 .. 0.07925
        j : 0.0250052 .. 0.0250052
        k : 0.200624 .. 0.200624

    Block 302 cell size :
        i : 0.07925 .. 0.07925
        j : 0.0252499 .. 0.0252499
        k : 0.160676 .. 0.160676

    Block 303 cell size :
        i : 0.0760862 .. 0.0760862
        j : 0.0249894 .. 0.0249894
        k : 0.123703 .. 0.123703

    Block 304 cell size :
        i : 0.0356347 .. 0.0356347
        j : 0.0345039 .. 0.0345039
        k : 0.161899 .. 0.161899

    Block 305 cell size :
        i : 0.07925 .. 0.07925
        j : 0.02475 .. 0.02475
        k : 0.159229 .. 0.159229

    Block 306 cell size :
        i : 0.07925 .. 0.07925
        j : 0.0250052 .. 0.0250052
        k : 0.197931 .. 0.197931

    Block 307 cell size :
        i : 0.07925 .. 0.07925
        j : 0.0252499 .. 0.0252499
        k : 0.158007 .. 0.158007

    Block 308 cell size :
        i : 0.0760862 .. 0.0760862
        j : 0.0249894 .. 0.0249894
        k : 0.121082 .. 0.121082

    Block 309 cell size :
        i : 0.0356347 .. 0.0356347
        j : 0.034504 .. 0.034504
        k : 0.159229 .. 0.159229

    Block 310 cell size :
        i : 0.07925 .. 0.07925
        j : 0.02475 .. 0.02475
        k : 0.157563 .. 0.157563

    Block 311 cell size :
        i : 0.07925 .. 0.07925
        j : 0.0250052 .. 0.0250052
        k : 0.19625 .. 0.19625

    Block 312 cell size :
        i : 0.07925 .. 0.07925
        j : 0.0252499 .. 0.0252499
        k : 0.156342 .. 0.156342

    Block 313 cell size :
        i : 0.0760862 .. 0.0760862
        j : 0.0249894 .. 0.0249894
        k : 0.119448 .. 0.119448

    Block 314 cell size :
        i : 0.0356347 .. 0.0356347
        j : 0.034504 .. 0.034504
        k : 0.157563 .. 0.157563

    Block 315 cell size :
        i : 0.07925 .. 0.07925
        j : 0.02475 .. 0.02475
        k : 0.156934 .. 0.156934

    Block 316 cell size :
        i : 0.07925 .. 0.07925
        j : 0.0250052 .. 0.0250052
        k : 0.195616 .. 0.195616

    Block 317 cell size :
        i : 0.07925 .. 0.07925
        j : 0.0252499 .. 0.0252499
        k : 0.155713 .. 0.155713

    Block 318 cell size :
        i : 0.0760862 .. 0.0760862
        j : 0.0249894 .. 0.0249894
        k : 0.118831 .. 0.118831

    Block 319 cell size :
        i : 0.0356347 .. 0.0356347
        j : 0.034504 .. 0.034504
        k : 0.156934 .. 0.156934

    Block 320 cell size :
        i : 0.07925 .. 0.07925
        j : 0.02475 .. 0.02475
        k : 0.157354 .. 0.157354

    Block 321 cell size :
        i : 0.07925 .. 0.07925
        j : 0.0250052 .. 0.0250052
        k : 0.196039 .. 0.196039

    Block 322 cell size :
        i : 0.07925 .. 0.07925
        j : 0.0252499 .. 0.0252499
        k : 0.156133 .. 0.156133

    Block 323 cell size :
        i : 0.0760862 .. 0.0760862
        j : 0.0249894 .. 0.0249894
        k : 0.119243 .. 0.119243

    Block 324 cell size :
        i : 0.0356347 .. 0.0356347
        j : 0.034504 .. 0.034504
        k : 0.157354 .. 0.157354

    Block 325 cell size :
        i : 0.07925 .. 0.07925
        j : 0.02475 .. 0.02475
        k : 0.158814 .. 0.158814

    Block 326 cell size :
        i : 0.07925 .. 0.07925
        j : 0.0250052 .. 0.0250052
        k : 0.197513 .. 0.197513

    Block 327 cell size :
        i : 0.07925 .. 0.07925
        j : 0.0252499 .. 0.0252499
        k : 0.157593 .. 0.157593

    Block 328 cell size :
        i : 0.0760862 .. 0.0760862
        j : 0.0249894 .. 0.0249894
        k : 0.120676 .. 0.120676

    Block 329 cell size :
        i : 0.0356347 .. 0.0356347
        j : 0.034504 .. 0.034504
        k : 0.158814 .. 0.158814

    Block 330 cell size :
        i : 0.07925 .. 0.07925
        j : 0.02475 .. 0.02475
        k : 0.161287 .. 0.161287

    Block 331 cell size :
        i : 0.07925 .. 0.07925
        j : 0.0250052 .. 0.0250052
        k : 0.200007 .. 0.200007

    Block 332 cell size :
        i : 0.07925 .. 0.07925
        j : 0.0252499 .. 0.0252499
        k : 0.160064 .. 0.160064

    Block 333 cell size :
        i : 0.0760862 .. 0.0760862
        j : 0.0249894 .. 0.0249894
        k : 0.123102 .. 0.123102

    Block 334 cell size :
        i : 0.0356347 .. 0.0356347
        j : 0.034504 .. 0.034504
        k : 0.161287 .. 0.161287

    Block 335 cell size :
        i : 0.07925 .. 0.07925
        j : 0.02475 .. 0.02475
        k : 0.164726 .. 0.164726

    Block 336 cell size :
        i : 0.07925 .. 0.07925
        j : 0.0250052 .. 0.0250052
        k : 0.203477 .. 0.203477

    Block 337 cell size :
        i : 0.07925 .. 0.07925
        j : 0.0252499 .. 0.0252499
        k : 0.163502 .. 0.163502

    Block 338 cell size :
        i : 0.0760862 .. 0.0760862
        j : 0.0249894 .. 0.0249894
        k : 0.12648 .. 0.12648

    Block 339 cell size :
        i : 0.0356347 .. 0.0356347
        j : 0.034504 .. 0.034504
        k : 0.164726 .. 0.164726

    Block 340 cell size :
        i : 0.07925 .. 0.07925
        j : 0.02475 .. 0.02475
        k : 0.169022 .. 0.169022

    Block 341 cell size :
        i : 0.07925 .. 0.07925
        j : 0.0250052 .. 0.0250052
        k : 0.207808 .. 0.207808

    Block 342 cell size :
        i : 0.07925 .. 0.07925
        j : 0.0252499 .. 0.0252499
        k : 0.167797 .. 0.167797

    Block 343 cell size :
        i : 0.0760862 .. 0.0760862
        j : 0.0249894 .. 0.0249894
        k : 0.130704 .. 0.130704

    Block 344 cell size :
        i : 0.0356347 .. 0.0356347
        j : 0.034504 .. 0.034504
        k : 0.169022 .. 0.169022

    Block 345 cell size :
        i : 0.07925 .. 0.07925
        j : 0.02475 .. 0.02475
        k : 0.168134 .. 0.168134

    Block 346 cell size :
        i : 0.07925 .. 0.07925
        j : 0.0250052 .. 0.0250052
        k : 0.206913 .. 0.206913

    Block 347 cell size :
        i : 0.07925 .. 0.07925
        j : 0.0252499 .. 0.0252499
        k : 0.166909 .. 0.166909

    Block 348 cell size :
        i : 0.0760862 .. 0.0760862
        j : 0.0249894 .. 0.0249894
        k : 0.12983 .. 0.12983

    Block 349 cell size :
        i : 0.0356347 .. 0.0356347
        j : 0.034504 .. 0.034504
        k : 0.168134 .. 0.168134

    Block 350 cell size :
        i : 0.07925 .. 0.07925
        j : 0.02475 .. 0.02475
        k : 0.163964 .. 0.163964

    Block 351 cell size :
        i : 0.07925 .. 0.07925
        j : 0.0250052 .. 0.0250052
        k : 0.202707 .. 0.202707

    Block 352 cell size :
        i : 0.07925 .. 0.07925
        j : 0.0252499 .. 0.0252499
        k : 0.16274 .. 0.16274

    Block 353 cell size :
        i : 0.0760862 .. 0.0760862
        j : 0.0249894 .. 0.0249894
        k : 0.125731 .. 0.125731

    Block 354 cell size :
        i : 0.0356347 .. 0.0356347
        j : 0.034504 .. 0.034504
        k : 0.163964 .. 0.163964

    Block 355 cell size :
        i : 0.07925 .. 0.07925
        j : 0.02475 .. 0.02475
        k : 0.160713 .. 0.160713

    Block 356 cell size :
        i : 0.07925 .. 0.07925
        j : 0.0250052 .. 0.0250052
        k : 0.199428 .. 0.199428

    Block 357 cell size :
        i : 0.07925 .. 0.07925
        j : 0.0252499 .. 0.0252499
        k : 0.159491 .. 0.159491

    Block 358 cell size :
        i : 0.0760862 .. 0.0760862
        j : 0.0249894 .. 0.0249894
        k : 0.122539 .. 0.122539

    Block 359 cell size :
        i : 0.0356347 .. 0.0356347
        j : 0.034504 .. 0.034504
        k : 0.160713 .. 0.160713

    Block 360 cell size :
        i : 0.07925 .. 0.07925
        j : 0.02475 .. 0.02475
        k : 0.15844 .. 0.15844

    Block 361 cell size :
        i : 0.07925 .. 0.07925
        j : 0.0250052 .. 0.0250052
        k : 0.197135 .. 0.197135

    Block 362 cell size :
        i : 0.07925 .. 0.07925
        j : 0.0252499 .. 0.0252499
        k : 0.157219 .. 0.157219

    Block 363 cell size :
        i : 0.0760862 .. 0.0760862
        j : 0.0249894 .. 0.0249894
        k : 0.120308 .. 0.120308

    Block 364 cell size :
        i : 0.0356347 .. 0.0356347
        j : 0.034504 .. 0.034504
        k : 0.15844 .. 0.15844

    Block 365 cell size :
        i : 0.07925 .. 0.07925
        j : 0.02475 .. 0.02475
        k : 0.157186 .. 0.157186

    Block 366 cell size :
        i : 0.07925 .. 0.07925
        j : 0.0250052 .. 0.0250052
        k : 0.19587 .. 0.19587

    Block 367 cell size :
        i : 0.07925 .. 0.07925
        j : 0.0252499 .. 0.0252499
        k : 0.155965 .. 0.155965

    Block 368 cell size :
        i : 0.0760862 .. 0.0760862
        j : 0.0249894 .. 0.0249894
        k : 0.119078 .. 0.119078

    Block 369 cell size :
        i : 0.0356347 .. 0.0356347
        j : 0.034504 .. 0.034504
        k : 0.157186 .. 0.157186

    Block 370 cell size :
        i : 0.07925 .. 0.07925
        j : 0.02475 .. 0.02475
        k : 0.156976 .. 0.156976

    Block 371 cell size :
        i : 0.07925 .. 0.07925
        j : 0.0250052 .. 0.0250052
        k : 0.195658 .. 0.195658

    Block 372 cell size :
        i : 0.07925 .. 0.07925
        j : 0.0252499 .. 0.0252499
        k : 0.155755 .. 0.155755

    Block 373 cell size :
        i : 0.0760862 .. 0.0760862
        j : 0.0249894 .. 0.0249894
        k : 0.118872 .. 0.118872

    Block 374 cell size :
        i : 0.0356347 .. 0.0356347
        j : 0.034504 .. 0.034504
        k : 0.156976 .. 0.156976

    Block 375 cell size :
        i : 0.07925 .. 0.07925
        j : 0.02475 .. 0.02475
        k : 0.157814 .. 0.157814

    Block 376 cell size :
        i : 0.07925 .. 0.07925
        j : 0.0250052 .. 0.0250052
        k : 0.196504 .. 0.196504

    Block 377 cell size :
        i : 0.07925 .. 0.07925
        j : 0.0252499 .. 0.0252499
        k : 0.156593 .. 0.156593

    Block 378 cell size :
        i : 0.0760862 .. 0.0760862
        j : 0.0249894 .. 0.0249894
        k : 0.119695 .. 0.119695

    Block 379 cell size :
        i : 0.0356347 .. 0.0356347
        j : 0.034504 .. 0.034504
        k : 0.157814 .. 0.157814

    Block 380 cell size :
        i : 0.07925 .. 0.07925
        j : 0.02475 .. 0.02475
        k : 0.159684 .. 0.159684

    Block 381 cell size :
        i : 0.07925 .. 0.07925
        j : 0.0250052 .. 0.0250052
        k : 0.19839 .. 0.19839

    Block 382 cell size :
        i : 0.07925 .. 0.07925
        j : 0.0252499 .. 0.0252499
        k : 0.158462 .. 0.158462

    Block 383 cell size :
        i : 0.0760862 .. 0.0760862
        j : 0.0249894 .. 0.0249894
        k : 0.121529 .. 0.121529

    Block 384 cell size :
        i : 0.0356347 .. 0.0356347
        j : 0.034504 .. 0.034504
        k : 0.159684 .. 0.159684

    Block 385 cell size :
        i : 0.07925 .. 0.07925
        j : 0.02475 .. 0.02475
        k : 0.16255 .. 0.16255

    Block 386 cell size :
        i : 0.07925 .. 0.07925
        j : 0.0250052 .. 0.0250052
        k : 0.201281 .. 0.201281

    Block 387 cell size :
        i : 0.07925 .. 0.07925
        j : 0.0252499 .. 0.0252499
        k : 0.161327 .. 0.161327

    Block 388 cell size :
        i : 0.0760862 .. 0.0760862
        j : 0.0249894 .. 0.0249894
        k : 0.124342 .. 0.124342

    Block 389 cell size :
        i : 0.0356347 .. 0.0356347
        j : 0.034504 .. 0.034504
        k : 0.16255 .. 0.16255

    Block 390 cell size :
        i : 0.07925 .. 0.07925
        j : 0.02475 .. 0.02475
        k : 0.16636 .. 0.16636

    Block 391 cell size :
        i : 0.07925 .. 0.07925
        j : 0.0250052 .. 0.0250052
        k : 0.205124 .. 0.205124

    Block 392 cell size :
        i : 0.07925 .. 0.07925
        j : 0.0252499 .. 0.0252499
        k : 0.165136 .. 0.165136

    Block 393 cell size :
        i : 0.0760862 .. 0.0760862
        j : 0.0249894 .. 0.0249894
        k : 0.128085 .. 0.128085

    Block 394 cell size :
        i : 0.0356347 .. 0.0356347
        j : 0.034504 .. 0.034504
        k : 0.16636 .. 0.16636

    Block 395 cell size :
        i : 0.07925 .. 0.07925
        j : 0.02475 .. 0.02475
        k : 0.169774 .. 0.169774

    Block 396 cell size :
        i : 0.07925 .. 0.07925
        j : 0.0250052 .. 0.0250052
        k : 0.208566 .. 0.208566

    Block 397 cell size :
        i : 0.07925 .. 0.07925
        j : 0.0252499 .. 0.0252499
        k : 0.168549 .. 0.168549

    Block 398 cell size :
        i : 0.0760862 .. 0.0760862
        j : 0.0249894 .. 0.0249894
        k : 0.131444 .. 0.131444

    Block 399 cell size :
        i : 0.0356347 .. 0.0356347
        j : 0.034504 .. 0.034504
        k : 0.169774 .. 0.169774

    Block 400 cell size :
        i : 0.07925 .. 0.07925
        j : 0.02475 .. 0.02475
        k : 0.16636 .. 0.16636

    Block 401 cell size :
        i : 0.07925 .. 0.07925
        j : 0.0250052 .. 0.0250052
        k : 0.205124 .. 0.205124

    Block 402 cell size :
        i : 0.07925 .. 0.07925
        j : 0.0252499 .. 0.0252499
        k : 0.165136 .. 0.165136

    Block 403 cell size :
        i : 0.0760862 .. 0.0760862
        j : 0.0249894 .. 0.0249894
        k : 0.128085 .. 0.128085

    Block 404 cell size :
        i : 0.0356347 .. 0.0356347
        j : 0.034504 .. 0.034504
        k : 0.16636 .. 0.16636

    Block 405 cell size :
        i : 0.07925 .. 0.07925
        j : 0.02475 .. 0.02475
        k : 0.16255 .. 0.16255

    Block 406 cell size :
        i : 0.07925 .. 0.07925
        j : 0.0250052 .. 0.0250052
        k : 0.201281 .. 0.201281

    Block 407 cell size :
        i : 0.07925 .. 0.07925
        j : 0.0252499 .. 0.0252499
        k : 0.161327 .. 0.161327

    Block 408 cell size :
        i : 0.0760862 .. 0.0760862
        j : 0.0249894 .. 0.0249894
        k : 0.124342 .. 0.124342

    Block 409 cell size :
        i : 0.0356347 .. 0.0356347
        j : 0.034504 .. 0.034504
        k : 0.16255 .. 0.16255

    Block 410 cell size :
        i : 0.07925 .. 0.07925
        j : 0.02475 .. 0.02475
        k : 0.159684 .. 0.159684

    Block 411 cell size :
        i : 0.07925 .. 0.07925
        j : 0.0250052 .. 0.0250052
        k : 0.19839 .. 0.19839

    Block 412 cell size :
        i : 0.07925 .. 0.07925
        j : 0.0252499 .. 0.0252499
        k : 0.158462 .. 0.158462

    Block 413 cell size :
        i : 0.0760862 .. 0.0760862
        j : 0.0249894 .. 0.0249894
        k : 0.121529 .. 0.121529

    Block 414 cell size :
        i : 0.0356347 .. 0.0356347
        j : 0.034504 .. 0.034504
        k : 0.159684 .. 0.159684

    Block 415 cell size :
        i : 0.07925 .. 0.07925
        j : 0.02475 .. 0.02475
        k : 0.157814 .. 0.157814

    Block 416 cell size :
        i : 0.07925 .. 0.07925
        j : 0.0250052 .. 0.0250052
        k : 0.196504 .. 0.196504

    Block 417 cell size :
        i : 0.07925 .. 0.07925
        j : 0.0252499 .. 0.0252499
        k : 0.156593 .. 0.156593

    Block 418 cell size :
        i : 0.0760862 .. 0.0760862
        j : 0.0249894 .. 0.0249894
        k : 0.119695 .. 0.119695

    Block 419 cell size :
        i : 0.0356347 .. 0.0356347
        j : 0.034504 .. 0.034504
        k : 0.157814 .. 0.157814

    Block 420 cell size :
        i : 0.07925 .. 0.07925
        j : 0.02475 .. 0.02475
        k : 0.156976 .. 0.156976

    Block 421 cell size :
        i : 0.07925 .. 0.07925
        j : 0.0250052 .. 0.0250052
        k : 0.195658 .. 0.195658

    Block 422 cell size :
        i : 0.07925 .. 0.07925
        j : 0.0252499 .. 0.0252499
        k : 0.155755 .. 0.155755

    Block 423 cell size :
        i : 0.0760862 .. 0.0760862
        j : 0.0249894 .. 0.0249894
        k : 0.118872 .. 0.118872

    Block 424 cell size :
        i : 0.0356347 .. 0.0356347
        j : 0.034504 .. 0.034504
        k : 0.156976 .. 0.156976

    Block 425 cell size :
        i : 0.07925 .. 0.07925
        j : 0.02475 .. 0.02475
        k : 0.157186 .. 0.157186

    Block 426 cell size :
        i : 0.07925 .. 0.07925
        j : 0.0250052 .. 0.0250052
        k : 0.19587 .. 0.19587

    Block 427 cell size :
        i : 0.07925 .. 0.07925
        j : 0.0252499 .. 0.0252499
        k : 0.155965 .. 0.155965

    Block 428 cell size :
        i : 0.0760862 .. 0.0760862
        j : 0.0249894 .. 0.0249894
        k : 0.119078 .. 0.119078

    Block 429 cell size :
        i : 0.0356347 .. 0.0356347
        j : 0.034504 .. 0.034504
        k : 0.157186 .. 0.157186

    Block 430 cell size :
        i : 0.07925 .. 0.07925
        j : 0.02475 .. 0.02475
        k : 0.15844 .. 0.15844

    Block 431 cell size :
        i : 0.07925 .. 0.07925
        j : 0.0250052 .. 0.0250052
        k : 0.197135 .. 0.197135

    Block 432 cell size :
        i : 0.07925 .. 0.07925
        j : 0.0252499 .. 0.0252499
        k : 0.157219 .. 0.157219

    Block 433 cell size :
        i : 0.0760862 .. 0.0760862
        j : 0.0249894 .. 0.0249894
        k : 0.120308 .. 0.120308

    Block 434 cell size :
        i : 0.0356347 .. 0.0356347
        j : 0.034504 .. 0.034504
        k : 0.15844 .. 0.15844

    Block 435 cell size :
        i : 0.07925 .. 0.07925
        j : 0.02475 .. 0.02475
        k : 0.160713 .. 0.160713

    Block 436 cell size :
        i : 0.07925 .. 0.07925
        j : 0.0250052 .. 0.0250052
        k : 0.199428 .. 0.199428

    Block 437 cell size :
        i : 0.07925 .. 0.07925
        j : 0.0252499 .. 0.0252499
        k : 0.159491 .. 0.159491

    Block 438 cell size :
        i : 0.0760862 .. 0.0760862
        j : 0.0249894 .. 0.0249894
        k : 0.122539 .. 0.122539

    Block 439 cell size :
        i : 0.0356347 .. 0.0356347
        j : 0.034504 .. 0.034504
        k : 0.160713 .. 0.160713

    Block 440 cell size :
        i : 0.07925 .. 0.07925
        j : 0.02475 .. 0.02475
        k : 0.163964 .. 0.163964

    Block 441 cell size :
        i : 0.07925 .. 0.07925
        j : 0.0250052 .. 0.0250052
        k : 0.202707 .. 0.202707

    Block 442 cell size :
        i : 0.07925 .. 0.07925
        j : 0.0252499 .. 0.0252499
        k : 0.16274 .. 0.16274

    Block 443 cell size :
        i : 0.0760862 .. 0.0760862
        j : 0.0249894 .. 0.0249894
        k : 0.125731 .. 0.125731

    Block 444 cell size :
        i : 0.0356347 .. 0.0356347
        j : 0.034504 .. 0.034504
        k : 0.163964 .. 0.163964

    Block 445 cell size :
        i : 0.07925 .. 0.07925
        j : 0.02475 .. 0.02475
        k : 0.168134 .. 0.168134

    Block 446 cell size :
        i : 0.07925 .. 0.07925
        j : 0.0250052 .. 0.0250052
        k : 0.206913 .. 0.206913

    Block 447 cell size :
        i : 0.07925 .. 0.07925
        j : 0.0252499 .. 0.0252499
        k : 0.166909 .. 0.166909

    Block 448 cell size :
        i : 0.0760862 .. 0.0760862
        j : 0.0249894 .. 0.0249894
        k : 0.12983 .. 0.12983

    Block 449 cell size :
        i : 0.0356347 .. 0.0356347
        j : 0.034504 .. 0.034504
        k : 0.168134 .. 0.168134

    Block 450 cell size :
        i : 0.07925 .. 0.07925
        j : 0.02475 .. 0.02475
        k : 0.169022 .. 0.169022

    Block 451 cell size :
        i : 0.07925 .. 0.07925
        j : 0.0250052 .. 0.0250052
        k : 0.207808 .. 0.207808

    Block 452 cell size :
        i : 0.07925 .. 0.07925
        j : 0.0252499 .. 0.0252499
        k : 0.167797 .. 0.167797

    Block 453 cell size :
        i : 0.0760862 .. 0.0760862
        j : 0.0249894 .. 0.0249894
        k : 0.130704 .. 0.130704

    Block 454 cell size :
        i : 0.0356347 .. 0.0356347
        j : 0.034504 .. 0.034504
        k : 0.169022 .. 0.169022

    Block 455 cell size :
        i : 0.07925 .. 0.07925
        j : 0.02475 .. 0.02475
        k : 0.164726 .. 0.164726

    Block 456 cell size :
        i : 0.07925 .. 0.07925
        j : 0.0250052 .. 0.0250052
        k : 0.203477 .. 0.203477

    Block 457 cell size :
        i : 0.07925 .. 0.07925
        j : 0.0252499 .. 0.0252499
        k : 0.163502 .. 0.163502

    Block 458 cell size :
        i : 0.0760862 .. 0.0760862
        j : 0.0249894 .. 0.0249894
        k : 0.12648 .. 0.12648

    Block 459 cell size :
        i : 0.0356347 .. 0.0356347
        j : 0.034504 .. 0.034504
        k : 0.164726 .. 0.164726

    Block 460 cell size :
        i : 0.07925 .. 0.07925
        j : 0.02475 .. 0.02475
        k : 0.161287 .. 0.161287

    Block 461 cell size :
        i : 0.07925 .. 0.07925
        j : 0.0250052 .. 0.0250052
        k : 0.200007 .. 0.200007

    Block 462 cell size :
        i : 0.07925 .. 0.07925
        j : 0.0252499 .. 0.0252499
        k : 0.160064 .. 0.160064

    Block 463 cell size :
        i : 0.0760862 .. 0.0760862
        j : 0.0249894 .. 0.0249894
        k : 0.123102 .. 0.123102

    Block 464 cell size :
        i : 0.0356347 .. 0.0356347
        j : 0.034504 .. 0.034504
        k : 0.161287 .. 0.161287

    Block 465 cell size :
        i : 0.07925 .. 0.07925
        j : 0.02475 .. 0.02475
        k : 0.158814 .. 0.158814

    Block 466 cell size :
        i : 0.07925 .. 0.07925
        j : 0.0250052 .. 0.0250052
        k : 0.197513 .. 0.197513

    Block 467 cell size :
        i : 0.07925 .. 0.07925
        j : 0.0252499 .. 0.0252499
        k : 0.157593 .. 0.157593

    Block 468 cell size :
        i : 0.0760862 .. 0.0760862
        j : 0.0249894 .. 0.0249894
        k : 0.120676 .. 0.120676

    Block 469 cell size :
        i : 0.0356347 .. 0.0356347
        j : 0.034504 .. 0.034504
        k : 0.158814 .. 0.158814

    Block 470 cell size :
        i : 0.07925 .. 0.07925
        j : 0.02475 .. 0.02475
        k : 0.157354 .. 0.157354

    Block 471 cell size :
        i : 0.07925 .. 0.07925
        j : 0.0250052 .. 0.0250052
        k : 0.196039 .. 0.196039

    Block 472 cell size :
        i : 0.07925 .. 0.07925
        j : 0.0252499 .. 0.0252499
        k : 0.156133 .. 0.156133

    Block 473 cell size :
        i : 0.0760862 .. 0.0760862
        j : 0.0249894 .. 0.0249894
        k : 0.119243 .. 0.119243

    Block 474 cell size :
        i : 0.0356347 .. 0.0356347
        j : 0.034504 .. 0.034504
        k : 0.157354 .. 0.157354

    Block 475 cell size :
        i : 0.07925 .. 0.07925
        j : 0.02475 .. 0.02475
        k : 0.156934 .. 0.156934

    Block 476 cell size :
        i : 0.07925 .. 0.07925
        j : 0.0250052 .. 0.0250052
        k : 0.195616 .. 0.195616

    Block 477 cell size :
        i : 0.07925 .. 0.07925
        j : 0.0252499 .. 0.0252499
        k : 0.155713 .. 0.155713

    Block 478 cell size :
        i : 0.0760862 .. 0.0760862
        j : 0.0249894 .. 0.0249894
        k : 0.118831 .. 0.118831

    Block 479 cell size :
        i : 0.0356347 .. 0.0356347
        j : 0.034504 .. 0.034504
        k : 0.156934 .. 0.156934

    Block 480 cell size :
        i : 0.07925 .. 0.07925
        j : 0.02475 .. 0.02475
        k : 0.157563 .. 0.157563

    Block 481 cell size :
        i : 0.07925 .. 0.07925
        j : 0.0250052 .. 0.0250052
        k : 0.19625 .. 0.19625

    Block 482 cell size :
        i : 0.07925 .. 0.07925
        j : 0.0252499 .. 0.0252499
        k : 0.156342 .. 0.156342

    Block 483 cell size :
        i : 0.0760862 .. 0.0760862
        j : 0.0249894 .. 0.0249894
        k : 0.119448 .. 0.119448

    Block 484 cell size :
        i : 0.0356347 .. 0.0356347
        j : 0.034504 .. 0.034504
        k : 0.157563 .. 0.157563

    Block 485 cell size :
        i : 0.07925 .. 0.07925
        j : 0.02475 .. 0.02475
        k : 0.159229 .. 0.159229

    Block 486 cell size :
        i : 0.07925 .. 0.07925
        j : 0.0250052 .. 0.0250052
        k : 0.197931 .. 0.197931

    Block 487 cell size :
        i : 0.07925 .. 0.07925
        j : 0.0252499 .. 0.0252499
        k : 0.158007 .. 0.158007

    Block 488 cell size :
        i : 0.0760862 .. 0.0760862
        j : 0.0249894 .. 0.0249894
        k : 0.121082 .. 0.121082

    Block 489 cell size :
        i : 0.0356347 .. 0.0356347
        j : 0.034504 .. 0.034504
        k : 0.159229 .. 0.159229

    Block 490 cell size :
        i : 0.07925 .. 0.07925
        j : 0.02475 .. 0.02475
        k : 0.161899 .. 0.161899

    Block 491 cell size :
        i : 0.07925 .. 0.07925
        j : 0.0250052 .. 0.0250052
        k : 0.200624 .. 0.200624

    Block 492 cell size :
        i : 0.07925 .. 0.07925
        j : 0.0252499 .. 0.0252499
        k : 0.160676 .. 0.160676

    Block 493 cell size :
        i : 0.0760862 .. 0.0760862
        j : 0.0249894 .. 0.0249894
        k : 0.123703 .. 0.123703

    Block 494 cell size :
        i : 0.0356347 .. 0.0356347
        j : 0.034504 .. 0.034504
        k : 0.161899 .. 0.161899

    Block 495 cell size :
        i : 0.07925 .. 0.07925
        j : 0.02475 .. 0.02475
        k : 0.165524 .. 0.165524

    Block 496 cell size :
        i : 0.07925 .. 0.07925
        j : 0.0250052 .. 0.0250052
        k : 0.204282 .. 0.204282

    Block 497 cell size :
        i : 0.07925 .. 0.07925
        j : 0.0252499 .. 0.0252499
        k : 0.1643 .. 0.1643

    Block 498 cell size :
        i : 0.0760862 .. 0.0760862
        j : 0.0249894 .. 0.0249894
        k : 0.127264 .. 0.127264

    Block 499 cell size :
        i : 0.0356347 .. 0.0356347
        j : 0.0345039 .. 0.0345039
        k : 0.165524 .. 0.165524

    Block 500 cell size :
        i : 0.07925 .. 0.07925
        j : 0.02475 .. 0.02475
        k : 0.169585 .. 0.169585

    Block 501 cell size :
        i : 0.07925 .. 0.07925
        j : 0.0250052 .. 0.0250052
        k : 0.208376 .. 0.208376

    Block 502 cell size :
        i : 0.07925 .. 0.07925
        j : 0.0252499 .. 0.0252499
        k : 0.16836 .. 0.16836

    Block 503 cell size :
        i : 0.0760862 .. 0.0760862
        j : 0.0249894 .. 0.0249894
        k : 0.131258 .. 0.131258

    Block 504 cell size :
        i : 0.0356347 .. 0.0356347
        j : 0.034504 .. 0.034504
        k : 0.169585 .. 0.169585

    Block 505 cell size :
        i : 0.07925 .. 0.07925
        j : 0.02475 .. 0.02475
        k : 0.167229 .. 0.167229

    Block 506 cell size :
        i : 0.07925 .. 0.07925
        j : 0.0250052 .. 0.0250052
        k : 0.206001 .. 0.206001

    Block 507 cell size :
        i : 0.07925 .. 0.07925
        j : 0.0252499 .. 0.0252499
        k : 0.166005 .. 0.166005

    Block 508 cell size :
        i : 0.0760862 .. 0.0760862
        j : 0.0249894 .. 0.0249894
        k : 0.12894 .. 0.12894

    Block 509 cell size :
        i : 0.0356347 .. 0.0356347
        j : 0.034504 .. 0.034504
        k : 0.167229 .. 0.167229

    Block 510 cell size :
        i : 0.07925 .. 0.07925
        j : 0.02475 .. 0.02475
        k : 0.163238 .. 0.163238

    Block 511 cell size :
        i : 0.07925 .. 0.07925
        j : 0.0250052 .. 0.0250052
        k : 0.201976 .. 0.201976

    Block 512 cell size :
        i : 0.07925 .. 0.07925
        j : 0.0252499 .. 0.0252499
        k : 0.162015 .. 0.162015

    Block 513 cell size :
        i : 0.0760862 .. 0.0760862
        j : 0.0249894 .. 0.0249894
        k : 0.125018 .. 0.125018

    Block 514 cell size :
        i : 0.0356347 .. 0.0356347
        j : 0.034504 .. 0.034504
        k : 0.163238 .. 0.163238

    Block 515 cell size :
        i : 0.07925 .. 0.07925
        j : 0.02475 .. 0.02475
        k : 0.16018 .. 0.16018

    Block 516 cell size :
        i : 0.07925 .. 0.07925
        j : 0.0250052 .. 0.0250052
        k : 0.198891 .. 0.198891

    Block 517 cell size :
        i : 0.07925 .. 0.07925
        j : 0.0252499 .. 0.0252499
        k : 0.158958 .. 0.158958

    Block 518 cell size :
        i : 0.0760862 .. 0.0760862
        j : 0.0249894 .. 0.0249894
        k : 0.122016 .. 0.122016

    Block 519 cell size :
        i : 0.0356347 .. 0.0356347
        j : 0.0345039 .. 0.0345039
        k : 0.16018 .. 0.16018

    Block 520 cell size :
        i : 0.07925 .. 0.07925
        j : 0.02475 .. 0.02475
        k : 0.158109 .. 0.158109

    Block 521 cell size :
        i : 0.07925 .. 0.07925
        j : 0.0250052 .. 0.0250052
        k : 0.196801 .. 0.196801

    Block 522 cell size :
        i : 0.07925 .. 0.07925
        j : 0.0252499 .. 0.0252499
        k : 0.156888 .. 0.156888

    Block 523 cell size :
        i : 0.0760862 .. 0.0760862
        j : 0.0249894 .. 0.0249894
        k : 0.119983 .. 0.119983

    Block 524 cell size :
        i : 0.0356347 .. 0.0356347
        j : 0.034504 .. 0.034504
        k : 0.158109 .. 0.158109

    Block 525 cell size :
        i : 0.07925 .. 0.07925
        j : 0.02475 .. 0.02475
        k : 0.157064 .. 0.157064

    Block 526 cell size :
        i : 0.07925 .. 0.07925
        j : 0.0250052 .. 0.0250052
        k : 0.195746 .. 0.195746

    Block 527 cell size :
        i : 0.07925 .. 0.07925
        j : 0.0252499 .. 0.0252499
        k : 0.155843 .. 0.155843

    Block 528 cell size :
        i : 0.0760862 .. 0.0760862
        j : 0.0249894 .. 0.0249894
        k : 0.118958 .. 0.118958

    Block 529 cell size :
        i : 0.0356347 .. 0.0356347
        j : 0.034504 .. 0.034504
        k : 0.157064 .. 0.157064

    Block 530 cell size :
        i : 0.07925 .. 0.07925
        j : 0.02475 .. 0.02475
        k : 0.157065 .. 0.157065

    Block 531 cell size :
        i : 0.07925 .. 0.07925
        j : 0.0250052 .. 0.0250052
        k : 0.195748 .. 0.195748

    Block 532 cell size :
        i : 0.07925 .. 0.07925
        j : 0.0252499 .. 0.0252499
        k : 0.155844 .. 0.155844

    Block 533 cell size :
        i : 0.0760862 .. 0.0760862
        j : 0.0249894 .. 0.0249894
        k : 0.118959 .. 0.118959

    Block 534 cell size :
        i : 0.0356347 .. 0.0356347
        j : 0.034504 .. 0.034504
        k : 0.157065 .. 0.157065

    Block 535 cell size :
        i : 0.07925 .. 0.07925
        j : 0.02475 .. 0.02475
        k : 0.158113 .. 0.158113

    Block 536 cell size :
        i : 0.07925 .. 0.07925
        j : 0.0250052 .. 0.0250052
        k : 0.196805 .. 0.196805

    Block 537 cell size :
        i : 0.07925 .. 0.07925
        j : 0.0252499 .. 0.0252499
        k : 0.156891 .. 0.156891

    Block 538 cell size :
        i : 0.0760862 .. 0.0760862
        j : 0.0249894 .. 0.0249894
        k : 0.119987 .. 0.119987

    Block 539 cell size :
        i : 0.0356347 .. 0.0356347
        j : 0.034504 .. 0.034504
        k : 0.158113 .. 0.158113

    Block 540 cell size :
        i : 0.07925 .. 0.07925
        j : 0.02475 .. 0.02475
        k : 0.160186 .. 0.160186

    Block 541 cell size :
        i : 0.07925 .. 0.07925
        j : 0.0250052 .. 0.0250052
        k : 0.198897 .. 0.198897

    Block 542 cell size :
        i : 0.07925 .. 0.07925
        j : 0.0252499 .. 0.0252499
        k : 0.158964 .. 0.158964

    Block 543 cell size :
        i : 0.0760862 .. 0.0760862
        j : 0.0249894 .. 0.0249894
        k : 0.122022 .. 0.122022

    Block 544 cell size :
        i : 0.0356347 .. 0.0356347
        j : 0.034504 .. 0.034504
        k : 0.160186 .. 0.160186

    Block 545 cell size :
        i : 0.07925 .. 0.07925
        j : 0.02475 .. 0.02475
        k : 0.163247 .. 0.163247

    Block 546 cell size :
        i : 0.07925 .. 0.07925
        j : 0.0250052 .. 0.0250052
        k : 0.201984 .. 0.201984

    Block 547 cell size :
        i : 0.07925 .. 0.07925
        j : 0.0252499 .. 0.0252499
        k : 0.162024 .. 0.162024

    Block 548 cell size :
        i : 0.0760862 .. 0.0760862
        j : 0.0249894 .. 0.0249894
        k : 0.125027 .. 0.125027

    Block 549 cell size :
        i : 0.0356347 .. 0.0356347
        j : 0.034504 .. 0.034504
        k : 0.163247 .. 0.163247

    Block 550 cell size :
        i : 0.07925 .. 0.07925
        j : 0.02475 .. 0.02475
        k : 0.16724 .. 0.16724

    Block 551 cell size :
        i : 0.07925 .. 0.07925
        j : 0.0250052 .. 0.0250052
        k : 0.206012 .. 0.206012

    Block 552 cell size :
        i : 0.07925 .. 0.07925
        j : 0.0252499 .. 0.0252499
        k : 0.166015 .. 0.166015

    Block 553 cell size :
        i : 0.0760862 .. 0.0760862
        j : 0.0249894 .. 0.0249894
        k : 0.128951 .. 0.128951

    Block 554 cell size :
        i : 0.0356347 .. 0.0356347
        j : 0.034504 .. 0.034504
        k : 0.16724 .. 0.16724

    Block 555 cell size :
        i : 0.07925 .. 0.07925
        j : 0.02475 .. 0.02475
        k : 0.169596 .. 0.169596

    Block 556 cell size :
        i : 0.07925 .. 0.07925
        j : 0.0250052 .. 0.0250052
        k : 0.208386 .. 0.208386

    Block 557 cell size :
        i : 0.07925 .. 0.07925
        j : 0.0252499 .. 0.0252499
        k : 0.16837 .. 0.16837

    Block 558 cell size :
        i : 0.0760862 .. 0.0760862
        j : 0.0249894 .. 0.0249894
        k : 0.131269 .. 0.131269

    Block 559 cell size :
        i : 0.0356347 .. 0.0356347
        j : 0.034504 .. 0.034504
        k : 0.169596 .. 0.169596

    Block 560 cell size :
        i : 0.07925 .. 0.07925
        j : 0.02475 .. 0.02475
        k : 0.165528 .. 0.165528

    Block 561 cell size :
        i : 0.07925 .. 0.07925
        j : 0.0250052 .. 0.0250052
        k : 0.204285 .. 0.204285

    Block 562 cell size :
        i : 0.07925 .. 0.07925
        j : 0.0252499 .. 0.0252499
        k : 0.164304 .. 0.164304

    Block 563 cell size :
        i : 0.0760862 .. 0.0760862
        j : 0.0249894 .. 0.0249894
        k : 0.127267 .. 0.127267

    Block 564 cell size :
        i : 0.0356347 .. 0.0356347
        j : 0.034504 .. 0.034504
        k : 0.165528 .. 0.165528

    Block 565 cell size :
        i : 0.07925 .. 0.07925
        j : 0.02475 .. 0.02475
        k : 0.161894 .. 0.161894

    Block 566 cell size :
        i : 0.07925 .. 0.07925
        j : 0.0250052 .. 0.0250052
        k : 0.20062 .. 0.20062

    Block 567 cell size :
        i : 0.07925 .. 0.07925
        j : 0.0252499 .. 0.0252499
        k : 0.160672 .. 0.160672

    Block 568 cell size :
        i : 0.0760862 .. 0.0760862
        j : 0.0249894 .. 0.0249894
        k : 0.123698 .. 0.123698

    Block 569 cell size :
        i : 0.0356347 .. 0.0356347
        j : 0.034504 .. 0.034504
        k : 0.161894 .. 0.161894

    Block 570 cell size :
        i : 0.07925 .. 0.07925
        j : 0.02475 .. 0.02475
        k : 0.159217 .. 0.159217

    Block 571 cell size :
        i : 0.07925 .. 0.07925
        j : 0.0250052 .. 0.0250052
        k : 0.197919 .. 0.197919

    Block 572 cell size :
        i : 0.07925 .. 0.07925
        j : 0.0252499 .. 0.0252499
        k : 0.157995 .. 0.157995

    Block 573 cell size :
        i : 0.0760862 .. 0.0760862
        j : 0.0249894 .. 0.0249894
        k : 0.12107 .. 0.12107

    Block 574 cell size :
        i : 0.0356347 .. 0.0356347
        j : 0.034504 .. 0.034504
        k : 0.159217 .. 0.159217

    Block 575 cell size :
        i : 0.07925 .. 0.07925
        j : 0.02475 .. 0.02475
        k : 0.157544 .. 0.157544

    Block 576 cell size :
        i : 0.07925 .. 0.07925
        j : 0.0250052 .. 0.0250052
        k : 0.196231 .. 0.196231

    Block 577 cell size :
        i : 0.07925 .. 0.07925
        j : 0.0252499 .. 0.0252499
        k : 0.156323 .. 0.156323

    Block 578 cell size :
        i : 0.0760862 .. 0.0760862
        j : 0.0249894 .. 0.0249894
        k : 0.119429 .. 0.119429

    Block 579 cell size :
        i : 0.0356347 .. 0.0356347
        j : 0.034504 .. 0.034504
        k : 0.157544 .. 0.157544

    Block 580 cell size :
        i : 0.07925 .. 0.07925
        j : 0.02475 .. 0.02475
        k : 0.156907 .. 0.156907

    Block 581 cell size :
        i : 0.07925 .. 0.07925
        j : 0.0250052 .. 0.0250052
        k : 0.195589 .. 0.195589

    Block 582 cell size :
        i : 0.07925 .. 0.07925
        j : 0.0252499 .. 0.0252499
        k : 0.155687 .. 0.155687

    Block 583 cell size :
        i : 0.0760862 .. 0.0760862
        j : 0.0249894 .. 0.0249894
        k : 0.118805 .. 0.118805

    Block 584 cell size :
        i : 0.0356347 .. 0.0356347
        j : 0.034504 .. 0.034504
        k : 0.156907 .. 0.156907

    Block 585 cell size :
        i : 0.07925 .. 0.07925
        j : 0.02475 .. 0.02475
        k : 0.15732 .. 0.15732

    Block 586 cell size :
        i : 0.07925 .. 0.07925
        j : 0.0250052 .. 0.0250052
        k : 0.196006 .. 0.196006

    Block 587 cell size :
        i : 0.07925 .. 0.07925
        j : 0.0252499 .. 0.0252499
        k : 0.1561 .. 0.1561

    Block 588 cell size :
        i : 0.0760862 .. 0.0760862
        j : 0.0249894 .. 0.0249894
        k : 0.11921 .. 0.11921

    Block 589 cell size :
        i : 0.0356347 .. 0.0356347
        j : 0.034504 .. 0.034504
        k : 0.15732 .. 0.15732

    Block 590 cell size :
        i : 0.07925 .. 0.07925
        j : 0.02475 .. 0.02475
        k : 0.158775 .. 0.158775

    Block 591 cell size :
        i : 0.07925 .. 0.07925
        j : 0.0250052 .. 0.0250052
        k : 0.197473 .. 0.197473

    Block 592 cell size :
        i : 0.07925 .. 0.07925
        j : 0.0252499 .. 0.0252499
        k : 0.157553 .. 0.157553

    Block 593 cell size :
        i : 0.0760862 .. 0.0760862
        j : 0.0249894 .. 0.0249894
        k : 0.120637 .. 0.120637

    Block 594 cell size :
        i : 0.0356347 .. 0.0356347
        j : 0.034504 .. 0.034504
        k : 0.158775 .. 0.158775

    Block 595 cell size :
        i : 0.07925 .. 0.07925
        j : 0.02475 .. 0.02475
        k : 0.161242 .. 0.161242

    Block 596 cell size :
        i : 0.07925 .. 0.07925
        j : 0.0250052 .. 0.0250052
        k : 0.199962 .. 0.199962

    Block 597 cell size :
        i : 0.07925 .. 0.07925
        j : 0.0252499 .. 0.0252499
        k : 0.160019 .. 0.160019

    Block 598 cell size :
        i : 0.0760862 .. 0.0760862
        j : 0.0249894 .. 0.0249894
        k : 0.123058 .. 0.123058

    Block 599 cell size :
        i : 0.0356347 .. 0.0356347
        j : 0.034504 .. 0.034504
        k : 0.161242 .. 0.161242

    Block 600 cell size :
        i : 0.07925 .. 0.07925
        j : 0.02475 .. 0.02475
        k : 0.164676 .. 0.164676

    Block 601 cell size :
        i : 0.07925 .. 0.07925
        j : 0.0250052 .. 0.0250052
        k : 0.203426 .. 0.203426

    Block 602 cell size :
        i : 0.07925 .. 0.07925
        j : 0.0252499 .. 0.0252499
        k : 0.163453 .. 0.163453

    Block 603 cell size :
        i : 0.0760862 .. 0.0760862
        j : 0.0249894 .. 0.0249894
        k : 0.126431 .. 0.126431

    Block 604 cell size :
        i : 0.0356347 .. 0.0356347
        j : 0.034504 .. 0.034504
        k : 0.164676 .. 0.164676

    Block 605 cell size :
        i : 0.07925 .. 0.07925
        j : 0.02475 .. 0.02475
        k : 0.168969 .. 0.168969

    Block 606 cell size :
        i : 0.07925 .. 0.07925
        j : 0.0250052 .. 0.0250052
        k : 0.207754 .. 0.207754

    Block 607 cell size :
        i : 0.07925 .. 0.07925
        j : 0.0252499 .. 0.0252499
        k : 0.167743 .. 0.167743

    Block 608 cell size :
        i : 0.0760862 .. 0.0760862
        j : 0.0249894 .. 0.0249894
        k : 0.130651 .. 0.130651

    Block 609 cell size :
        i : 0.0356347 .. 0.0356347
        j : 0.034504 .. 0.034504
        k : 0.168969 .. 0.168969

    Block 610 cell size :
        i : 0.07925 .. 0.07925
        j : 0.02475 .. 0.02475
        k : 0.168102 .. 0.168102

    Block 611 cell size :
        i : 0.07925 .. 0.07925
        j : 0.0250052 .. 0.0250052
        k : 0.20688 .. 0.20688

    Block 612 cell size :
        i : 0.07925 .. 0.07925
        j : 0.0252499 .. 0.0252499
        k : 0.166877 .. 0.166877

    Block 613 cell size :
        i : 0.0760862 .. 0.0760862
        j : 0.0249894 .. 0.0249894
        k : 0.129798 .. 0.129798

    Block 614 cell size :
        i : 0.0356347 .. 0.0356347
        j : 0.034504 .. 0.034504
        k : 0.168102 .. 0.168102

    Block 615 cell size :
        i : 0.07925 .. 0.07925
        j : 0.02475 .. 0.02475
        k : 0.163965 .. 0.163965

    Block 616 cell size :
        i : 0.07925 .. 0.07925
        j : 0.0250052 .. 0.0250052
        k : 0.202709 .. 0.202709

    Block 617 cell size :
        i : 0.07925 .. 0.07925
        j : 0.0252499 .. 0.0252499
        k : 0.162742 .. 0.162742

    Block 618 cell size :
        i : 0.0760862 .. 0.0760862
        j : 0.0249894 .. 0.0249894
        k : 0.125732 .. 0.125732

    Block 619 cell size :
        i : 0.0356347 .. 0.0356347
        j : 0.034504 .. 0.034504
        k : 0.163965 .. 0.163965

    Block 620 cell size :
        i : 0.07925 .. 0.07925
        j : 0.02475 .. 0.02475
        k : 0.160745 .. 0.160745

[...]
        i : 0.07925 .. 0.07925
        j : 0.02475 .. 0.02475
        k : 0.157904 .. 0.157904

    Block 641 cell size :
        i : 0.07925 .. 0.07925
        j : 0.0250052 .. 0.0250052
        k : 0.196594 .. 0.196594

    Block 642 cell size :
        i : 0.07925 .. 0.07925
        j : 0.0252499 .. 0.0252499
        k : 0.156683 .. 0.156683

    Block 643 cell size :
        i : 0.0760862 .. 0.0760862
        j : 0.0249894 .. 0.0249894
        k : 0.119782 .. 0.119782

    Block 644 cell size :
        i : 0.0356347 .. 0.0356347
        j : 0.034504 .. 0.034504
        k : 0.157904 .. 0.157904

    Block 645 cell size :
        i : 0.07925 .. 0.07925
        j : 0.02475 .. 0.02475
        k : 0.159771 .. 0.159771

    Block 646 cell size :
        i : 0.07925 .. 0.07925
        j : 0.0250052 .. 0.0250052
        k : 0.198478 .. 0.198478

    Block 647 cell size :
        i : 0.07925 .. 0.07925
        j : 0.0252499 .. 0.0252499
        k : 0.158549 .. 0.158549

    Block 648 cell size :
        i : 0.0760862 .. 0.0760862
        j : 0.0249894 .. 0.0249894
        k : 0.121614 .. 0.121614

    Block 649 cell size :
        i : 0.0356347 .. 0.0356347
        j : 0.034504 .. 0.034504
        k : 0.159771 .. 0.159771

    Block 650 cell size :
        i : 0.07925 .. 0.07925
        j : 0.02475 .. 0.02475
        k : 0.162628 .. 0.162628

    Block 651 cell size :
        i : 0.07925 .. 0.07925
        j : 0.0250052 .. 0.0250052
        k : 0.20136 .. 0.20136

    Block 652 cell size :
        i : 0.07925 .. 0.07925
        j : 0.0252499 .. 0.0252499
        k : 0.161405 .. 0.161405

    Block 653 cell size :
        i : 0.0760862 .. 0.0760862
        j : 0.0249894 .. 0.0249894
        k : 0.124418 .. 0.124418

    Block 654 cell size :
        i : 0.0356347 .. 0.0356347
        j : 0.034504 .. 0.034504
        k : 0.162628 .. 0.162628

    Block 655 cell size :
        i : 0.07925 .. 0.07925
        j : 0.02475 .. 0.02475
        k : 0.166422 .. 0.166422

    Block 656 cell size :
        i : 0.07925 .. 0.07925
        j : 0.0250052 .. 0.0250052
        k : 0.205188 .. 0.205188

    Block 657 cell size :
        i : 0.07925 .. 0.07925
        j : 0.0252499 .. 0.0252499
        k : 0.165198 .. 0.165198

    Block 658 cell size :
        i : 0.0760862 .. 0.0760862
        j : 0.0249894 .. 0.0249894
        k : 0.128146 .. 0.128146

    Block 659 cell size :
        i : 0.0356347 .. 0.0356347
        j : 0.034504 .. 0.034504
        k : 0.166422 .. 0.166422

    Block 660 cell size :
        i : 0.07925 .. 0.07925
        j : 0.02475 .. 0.02475
        k : 0.169812 .. 0.169812

    Block 661 cell size :
        i : 0.07925 .. 0.07925
        j : 0.0250052 .. 0.0250052
        k : 0.208604 .. 0.208604

    Block 662 cell size :
        i : 0.07925 .. 0.07925
        j : 0.0252499 .. 0.0252499
        k : 0.168587 .. 0.168587

    Block 663 cell size :
        i : 0.0760862 .. 0.0760862
        j : 0.0249894 .. 0.0249894
        k : 0.131482 .. 0.131482

    Block 664 cell size :
        i : 0.0356347 .. 0.0356347
        j : 0.034504 .. 0.034504
        k : 0.169812 .. 0.169812

    Block 665 cell size :
        i : 0.07925 .. 0.07925
        j : 0.02475 .. 0.02475
        k : 0.166364 .. 0.166364

    Block 666 cell size :
        i : 0.07925 .. 0.07925
        j : 0.0250052 .. 0.0250052
        k : 0.205128 .. 0.205128

    Block 667 cell size :
        i : 0.07925 .. 0.07925
        j : 0.0252499 .. 0.0252499
        k : 0.16514 .. 0.16514

    Block 668 cell size :
        i : 0.0760862 .. 0.0760862
        j : 0.0249894 .. 0.0249894
        k : 0.12809 .. 0.12809

    Block 669 cell size :
        i : 0.0356347 .. 0.0356347
        j : 0.034504 .. 0.034504
        k : 0.166364 .. 0.166364

    Block 670 cell size :
        i : 0.07925 .. 0.07925
        j : 0.02475 .. 0.02475
        k : 0.162555 .. 0.162555

    Block 671 cell size :
        i : 0.07925 .. 0.07925
        j : 0.0250052 .. 0.0250052
        k : 0.201286 .. 0.201286

    Block 672 cell size :
        i : 0.07925 .. 0.07925
        j : 0.0252499 .. 0.0252499
        k : 0.161332 .. 0.161332

    Block 673 cell size :
        i : 0.0760862 .. 0.0760862
        j : 0.0249894 .. 0.0249894
        k : 0.124347 .. 0.124347

    Block 674 cell size :
        i : 0.0356347 .. 0.0356347
        j : 0.034504 .. 0.034504
        k : 0.162555 .. 0.162555

    Block 675 cell size :
        i : 0.07925 .. 0.07925
        j : 0.02475 .. 0.02475
        k : 0.15973 .. 0.15973

    Block 676 cell size :
        i : 0.07925 .. 0.07925
        j : 0.0250052 .. 0.0250052
        k : 0.198437 .. 0.198437

    Block 677 cell size :
        i : 0.07925 .. 0.07925
        j : 0.0252499 .. 0.0252499
        k : 0.158508 .. 0.158508

    Block 678 cell size :
        i : 0.0760862 .. 0.0760862
        j : 0.0249894 .. 0.0249894
        k : 0.121573 .. 0.121573

    Block 679 cell size :
        i : 0.0356347 .. 0.0356347
        j : 0.034504 .. 0.034504
        k : 0.15973 .. 0.15973

    Block 680 cell size :
        i : 0.07925 .. 0.07925
        j : 0.02475 .. 0.02475
        k : 0.157943 .. 0.157943

    Block 681 cell size :
        i : 0.07925 .. 0.07925
        j : 0.0250052 .. 0.0250052
        k : 0.196635 .. 0.196635

    Block 682 cell size :
        i : 0.07925 .. 0.07925
        j : 0.0252499 .. 0.0252499
        k : 0.156722 .. 0.156722

    Block 683 cell size :
        i : 0.0760862 .. 0.0760862
        j : 0.0249894 .. 0.0249894
        k : 0.11982 .. 0.11982

    Block 684 cell size :
        i : 0.0356347 .. 0.0356347
        j : 0.034504 .. 0.034504
        k : 0.157943 .. 0.157943

    Block 685 cell size :
        i : 0.07925 .. 0.07925
        j : 0.02475 .. 0.02475
        k : 0.15723 .. 0.15723

    Block 686 cell size :
        i : 0.07925 .. 0.07925
        j : 0.0250052 .. 0.0250052
        k : 0.195914 .. 0.195914

    Block 687 cell size :
        i : 0.07925 .. 0.07925
        j : 0.0252499 .. 0.0252499
        k : 0.156009 .. 0.156009

    Block 688 cell size :
        i : 0.0760862 .. 0.0760862
        j : 0.0249894 .. 0.0249894
        k : 0.119121 .. 0.119121

    Block 689 cell size :
        i : 0.0356347 .. 0.0356347
        j : 0.034504 .. 0.034504
        k : 0.15723 .. 0.15723

    Block 690 cell size :
        i : 0.07925 .. 0.07925
        j : 0.02475 .. 0.02475
        k : 0.157604 .. 0.157604

    Block 691 cell size :
        i : 0.07925 .. 0.07925
        j : 0.0250052 .. 0.0250052
        k : 0.196291 .. 0.196291

    Block 692 cell size :
        i : 0.07925 .. 0.07925
        j : 0.0252499 .. 0.0252499
        k : 0.156383 .. 0.156383

    Block 693 cell size :
        i : 0.0760862 .. 0.0760862
        j : 0.0249894 .. 0.0249894
        k : 0.119491 .. 0.119491

    Block 694 cell size :
        i : 0.0356347 .. 0.0356347
        j : 0.034504 .. 0.034504
        k : 0.157604 .. 0.157604

    Block 695 cell size :
        i : 0.07925 .. 0.07925
        j : 0.02475 .. 0.02475
        k : 0.159059 .. 0.159059

    Block 696 cell size :
        i : 0.07925 .. 0.07925
        j : 0.0250052 .. 0.0250052
        k : 0.197757 .. 0.197757

    Block 697 cell size :
        i : 0.07925 .. 0.07925
        j : 0.0252499 .. 0.0252499
        k : 0.157837 .. 0.157837

    Block 698 cell size :
        i : 0.0760862 .. 0.0760862
        j : 0.0249894 .. 0.0249894
        k : 0.12092 .. 0.12092

    Block 699 cell size :
        i : 0.0356347 .. 0.0356347
        j : 0.034504 .. 0.034504
        k : 0.159059 .. 0.159059

    Block 700 cell size :
        i : 0.07925 .. 0.07925
        j : 0.02475 .. 0.02475
        k : 0.161565 .. 0.161565

    Block 701 cell size :
        i : 0.07925 .. 0.07925
        j : 0.0250052 .. 0.0250052
        k : 0.200283 .. 0.200283

    Block 702 cell size :
        i : 0.07925 .. 0.07925
        j : 0.0252499 .. 0.0252499
        k : 0.160342 .. 0.160342

    Block 703 cell size :
        i : 0.0760862 .. 0.0760862
        j : 0.0249894 .. 0.0249894
        k : 0.123381 .. 0.123381

    Block 704 cell size :
        i : 0.0356347 .. 0.0356347
        j : 0.034504 .. 0.034504
        k : 0.161565 .. 0.161565

    Block 705 cell size :
        i : 0.07925 .. 0.07925
        j : 0.02475 .. 0.02475
        k : 0.165073 .. 0.165073

    Block 706 cell size :
        i : 0.07925 .. 0.07925
        j : 0.0250052 .. 0.0250052
        k : 0.203822 .. 0.203822

    Block 707 cell size :
        i : 0.07925 .. 0.07925
        j : 0.0252499 .. 0.0252499
        k : 0.16385 .. 0.16385

    Block 708 cell size :
        i : 0.0760862 .. 0.0760862
        j : 0.0249894 .. 0.0249894
        k : 0.126828 .. 0.126828

    Block 709 cell size :
        i : 0.0356347 .. 0.0356347
        j : 0.034504 .. 0.034504
        k : 0.165073 .. 0.165073

    Block 710 cell size :
        i : 0.07925 .. 0.07925
        j : 0.02475 .. 0.02475
        k : 0.169523 .. 0.169523

    Block 711 cell size :
        i : 0.07925 .. 0.07925
        j : 0.0250052 .. 0.0250052
        k : 0.20831 .. 0.20831

    Block 712 cell size :
        i : 0.07925 .. 0.07925
        j : 0.0252499 .. 0.0252499
        k : 0.168298 .. 0.168298

    Block 713 cell size :
        i : 0.0760862 .. 0.0760862
        j : 0.0249894 .. 0.0249894
        k : 0.131203 .. 0.131203

    Block 714 cell size :
        i : 0.0356347 .. 0.0356347
        j : 0.034504 .. 0.034504
        k : 0.169523 .. 0.169523

    Block 715 cell size :
        i : 0.07925 .. 0.07925
        j : 0.02475 .. 0.02475
        k : 0.17021 .. 0.17021

    Block 716 cell size :
        i : 0.07925 .. 0.07925
        j : 0.0250052 .. 0.0250052
        k : 0.209005 .. 0.209005

    Block 717 cell size :
        i : 0.07925 .. 0.07925
        j : 0.0252499 .. 0.0252499
        k : 0.168985 .. 0.168985

    Block 718 cell size :
        i : 0.0760862 .. 0.0760862
        j : 0.0249894 .. 0.0249894
        k : 0.131874 .. 0.131874

    Block 719 cell size :
        i : 0.0356347 .. 0.0356347
        j : 0.034504 .. 0.034504
        k : 0.17021 .. 0.17021

    Block 720 cell size :
        i : 0.07925 .. 0.07925
        j : 0.02475 .. 0.02475
        k : 0.164895 .. 0.164895

    Block 721 cell size :
        i : 0.07925 .. 0.07925
        j : 0.0250052 .. 0.0250052
        k : 0.203647 .. 0.203647

    Block 722 cell size :
        i : 0.07925 .. 0.07925
        j : 0.0252499 .. 0.0252499
        k : 0.163671 .. 0.163671

    Block 723 cell size :
        i : 0.0760862 .. 0.0760862
        j : 0.0249894 .. 0.0249894
        k : 0.126645 .. 0.126645

    Block 724 cell size :
        i : 0.0356347 .. 0.0356347
        j : 0.034504 .. 0.034504
        k : 0.164895 .. 0.164895

    Block 725 cell size :
        i : 0.07925 .. 0.07925
        j : 0.02475 .. 0.02475
        k : 0.160288 .. 0.160288

    Block 726 cell size :
        i : 0.07925 .. 0.07925
        j : 0.0250052 .. 0.0250052
        k : 0.198998 .. 0.198998

    Block 727 cell size :
        i : 0.07925 .. 0.07925
        j : 0.0252499 .. 0.0252499
        k : 0.159066 .. 0.159066

    Block 728 cell size :
        i : 0.0760862 .. 0.0760862
        j : 0.0249894 .. 0.0249894
        k : 0.122125 .. 0.122125

    Block 729 cell size :
        i : 0.0356347 .. 0.0356347
        j : 0.034504 .. 0.034504
        k : 0.160288 .. 0.160288

    Block 730 cell size :
        i : 0.07925 .. 0.07925
        j : 0.02475 .. 0.02475
        k : 0.156514 .. 0.156514

    Block 731 cell size :
        i : 0.07925 .. 0.07925
        j : 0.0250052 .. 0.0250052
        k : 0.195187 .. 0.195187

    Block 732 cell size :
        i : 0.07925 .. 0.07925
        j : 0.0252499 .. 0.0252499
        k : 0.155294 .. 0.155294

    Block 733 cell size :
        i : 0.0760862 .. 0.0760862
        j : 0.0249894 .. 0.0249894
        k : 0.118428 .. 0.118428

    Block 734 cell size :
        i : 0.0356347 .. 0.0356347
        j : 0.034504 .. 0.034504
        k : 0.156514 .. 0.156514

    Block 735 cell size :
        i : 0.07925 .. 0.07925
        j : 0.02475 .. 0.02475
        k : 0.153634 .. 0.153634

    Block 736 cell size :
        i : 0.07925 .. 0.07925
        j : 0.0250052 .. 0.0250052
        k : 0.192279 .. 0.192279

    Block 737 cell size :
        i : 0.07925 .. 0.07925
        j : 0.0252499 .. 0.0252499
        k : 0.152415 .. 0.152415

    Block 738 cell size :
        i : 0.0760862 .. 0.0760862
        j : 0.0249894 .. 0.0249894
        k : 0.115609 .. 0.115609

    Block 739 cell size :
        i : 0.0356347 .. 0.0356347
        j : 0.034504 .. 0.034504
        k : 0.153634 .. 0.153634

    Block 740 cell size :
        i : 0.07925 .. 0.07925
        j : 0.02475 .. 0.02475
        k : 0.1517 .. 0.1517

    Block 741 cell size :
        i : 0.07925 .. 0.07925
        j : 0.0250052 .. 0.0250052
        k : 0.190326 .. 0.190326

    Block 742 cell size :
        i : 0.07925 .. 0.07925
        j : 0.0252499 .. 0.0252499
        k : 0.150482 .. 0.150482

    Block 743 cell size :
        i : 0.0760862 .. 0.0760862
        j : 0.0249894 .. 0.0249894
        k : 0.113716 .. 0.113716

    Block 744 cell size :
        i : 0.0356347 .. 0.0356347
        j : 0.034504 .. 0.034504
        k : 0.1517 .. 0.1517

    Block 745 cell size :
        i : 0.07925 .. 0.07925
        j : 0.02475 .. 0.02475
        k : 0.150748 .. 0.150748

    Block 746 cell size :
        i : 0.07925 .. 0.07925
        j : 0.0250052 .. 0.0250052
        k : 0.189365 .. 0.189365

    Block 747 cell size :
        i : 0.07925 .. 0.07925
        j : 0.0252499 .. 0.0252499
        k : 0.14953 .. 0.14953

    Block 748 cell size :
        i : 0.0760862 .. 0.0760862
        j : 0.0249894 .. 0.0249894
        k : 0.112783 .. 0.112783

    Block 749 cell size :
        i : 0.0356347 .. 0.0356347
        j : 0.034504 .. 0.034504
        k : 0.150748 .. 0.150748

    Block 750 cell size :
        i : 0.07925 .. 0.07925
        j : 0.02475 .. 0.02475
        k : 0.150795 .. 0.150795

    Block 751 cell size :
        i : 0.07925 .. 0.07925
        j : 0.0250052 .. 0.0250052
        k : 0.189415 .. 0.189415

    Block 752 cell size :
        i : 0.07925 .. 0.07925
        j : 0.0252499 .. 0.0252499
        k : 0.149578 .. 0.149578

    Block 753 cell size :
        i : 0.0760862 .. 0.0760862
        j : 0.0249894 .. 0.0249894
        k : 0.112827 .. 0.112827

    Block 754 cell size :
        i : 0.0356347 .. 0.0356347
        j : 0.034504 .. 0.034504
        k : 0.150795 .. 0.150795

    Block 755 cell size :
        i : 0.07925 .. 0.07925
        j : 0.02475 .. 0.02475
        k : 0.151843 .. 0.151843

    Block 756 cell size :
        i : 0.07925 .. 0.07925
        j : 0.0250052 .. 0.0250052
        k : 0.190473 .. 0.190473

    Block 757 cell size :
        i : 0.07925 .. 0.07925
        j : 0.0252499 .. 0.0252499
        k : 0.150624 .. 0.150624

    Block 758 cell size :
        i : 0.0760862 .. 0.0760862
        j : 0.0249894 .. 0.0249894
        k : 0.113849 .. 0.113849

    Block 759 cell size :
        i : 0.0356347 .. 0.0356347
        j : 0.034504 .. 0.034504
        k : 0.151843 .. 0.151843

    Block 760 cell size :
        i : 0.07925 .. 0.07925
        j : 0.02475 .. 0.02475
        k : 0.153869 .. 0.153869

    Block 761 cell size :
        i : 0.07925 .. 0.07925
        j : 0.0250052 .. 0.0250052
        k : 0.19252 .. 0.19252

    Block 762 cell size :
        i : 0.07925 .. 0.07925
        j : 0.0252499 .. 0.0252499
        k : 0.15265 .. 0.15265

    Block 763 cell size :
        i : 0.0760862 .. 0.0760862
        j : 0.0249894 .. 0.0249894
        k : 0.11583 .. 0.11583

    Block 764 cell size :
        i : 0.0356347 .. 0.0356347
        j : 0.034504 .. 0.034504
        k : 0.153869 .. 0.153869

    Block 765 cell size :
        i : 0.07925 .. 0.07925
        j : 0.02475 .. 0.02475
        k : 0.156836 .. 0.156836

    Block 766 cell size :
        i : 0.07925 .. 0.07925
        j : 0.0250052 .. 0.0250052
        k : 0.195517 .. 0.195517

    Block 767 cell size :
        i : 0.07925 .. 0.07925
        j : 0.0252499 .. 0.0252499
        k : 0.155615 .. 0.155615

    Block 768 cell size :
        i : 0.0760862 .. 0.0760862
        j : 0.0249894 .. 0.0249894
        k : 0.118735 .. 0.118735

    Block 769 cell size :
        i : 0.0356347 .. 0.0356347
        j : 0.034504 .. 0.034504
        k : 0.156836 .. 0.156836

    Block 770 cell size :
        i : 0.07925 .. 0.07925
        j : 0.02475 .. 0.02475
        k : 0.160692 .. 0.160692

    Block 771 cell size :
        i : 0.07925 .. 0.07925
        j : 0.0250052 .. 0.0250052
        k : 0.199409 .. 0.199409

    Block 772 cell size :
        i : 0.07925 .. 0.07925
        j : 0.0252499 .. 0.0252499
        k : 0.15947 .. 0.15947

    Block 773 cell size :
        i : 0.0760862 .. 0.0760862
        j : 0.0249894 .. 0.0249894
        k : 0.122517 .. 0.122517

    Block 774 cell size :
        i : 0.0356347 .. 0.0356347
        j : 0.0345039 .. 0.0345039
        k : 0.160692 .. 0.160692

    Block 775 cell size :
        i : 0.07925 .. 0.07925
        j : 0.02475 .. 0.02475
        k : 0.165375 .. 0.165375

    Block 776 cell size :
        i : 0.07925 .. 0.07925
        j : 0.0250052 .. 0.0250052
        k : 0.20413 .. 0.20413

    Block 777 cell size :
        i : 0.07925 .. 0.07925
        j : 0.0252499 .. 0.0252499
        k : 0.164151 .. 0.164151

    Block 778 cell size :
        i : 0.0760862 .. 0.0760862
        j : 0.0249894 .. 0.0249894
        k : 0.127119 .. 0.127119

    Block 779 cell size :
        i : 0.0356347 .. 0.0356347
        j : 0.034504 .. 0.034504
        k : 0.165375 .. 0.165375

    Block 780 cell size :
        i : 0.07925 .. 0.07925
        j : 0.02475 .. 0.02475
        k : 0.170817 .. 0.170817

    Block 781 cell size :
        i : 0.07925 .. 0.07925
        j : 0.0250052 .. 0.0250052
        k : 0.209608 .. 0.209608

    Block 782 cell size :
        i : 0.07925 .. 0.07925
        j : 0.0252499 .. 0.0252499
        k : 0.169591 .. 0.169591

    Block 783 cell size :
        i : 0.0760862 .. 0.0760862
        j : 0.0249894 .. 0.0249894
        k : 0.132485 .. 0.132485

    Block 784 cell size :
        i : 0.0356347 .. 0.0356347
        j : 0.034504 .. 0.034504
        k : 0.170817 .. 0.170817

    Block 785 cell size :
        i : 0.07925 .. 0.07925
        j : 0.02475 .. 0.02475
        k : 0.176948 .. 0.176948

    Block 786 cell size :
        i : 0.07925 .. 0.07925
        j : 0.0250052 .. 0.0250052
        k : 0.215766 .. 0.215766

    Block 787 cell size :
        i : 0.07925 .. 0.07925
        j : 0.0252499 .. 0.0252499
        k : 0.175721 .. 0.175721

    Block 788 cell size :
        i : 0.0760862 .. 0.0760862
        j : 0.0249894 .. 0.0249894
        k : 0.138555 .. 0.138555

    Block 789 cell size :
        i : 0.0356347 .. 0.0356347
        j : 0.034504 .. 0.034504
        k : 0.176948 .. 0.176948

    Block 790 cell size :
        i : 0.07925 .. 0.07925
        j : 0.02475 .. 0.02475
        k : 0.183698 .. 0.183698

    Block 791 cell size :
        i : 0.07925 .. 0.07925
        j : 0.0250052 .. 0.0250052
        k : 0.222525 .. 0.222525

    Block 792 cell size :
        i : 0.07925 .. 0.07925
        j : 0.0252499 .. 0.0252499
        k : 0.182471 .. 0.182471

    Block 793 cell size :
        i : 0.0760862 .. 0.0760862
        j : 0.0249894 .. 0.0249894
        k : 0.145273 .. 0.145273

    Block 794 cell size :
        i : 0.0356347 .. 0.0356347
        j : 0.034504 .. 0.034504
        k : 0.183698 .. 0.183698


There are no merge patch pairs

Writing polyMesh with 0 cellZones
----------------
Mesh Information
----------------
  boundingBox: (-4.4962 -2.49768 -0.499748) (0.499937 2.49768 6.14497)
  nPoints: 83360
  nCells: 79500
  nFaces: 242180
  nInternalFaces: 234820
----------------
Patches
----------------
  patch 0 (start: 234820 size: 500) name: outlet
  patch 1 (start: 235320 size: 500) name: inlet
  patch 2 (start: 235820 size: 6360) name: walls

End

