/*---------------------------------------------------------------------------*\
| =========                 |                                                 |
| \\      /  F ield         | OpenFOAM: The Open Source CFD Toolbox           |
|  \\    /   O peration     | Version:  2012                                  |
|   \\  /    A nd           | Website:  www.openfoam.com                      |
|    \\/     M anipulation  |                                                 |
\*---------------------------------------------------------------------------*/
Build  : _269d0ffd5c-20210619 OPENFOAM=2012 patch=210618
Arch   : "LSB;label=32;scalar=64"
Exec   : blockMesh
Date   : Jul 13 2022
Time   : 18:32:18
Host   : f485359ed3ce
PID    : 66035
I/O    : uncollated
Case   : /root/pulsed-reactor-optimisation/mesh_generation/coil_basic
nProcs : 1
trapFpe: Floating point exception trapping enabled (FOAM_SIGFPE).
fileModificationChecking : Monitoring run-time modified files using timeStampMaster (fileModificationSkew 5, maxFileModificationPolls 20)
allowSystemOperations : Allowing user-supplied system call operations

// * * * * * * * * * * * * * * * * * * * * * * * * * * * * * * * * * * * * * //
Create time

Creating block mesh from "system/blockMeshDict"
Creating block edges
Creating block faces
Creating topology blocks
Creating topology patches

Creating block mesh topology

Check topology

	Basic statistics
		Number of internal faces : 2972
		Number of boundary faces : 926
		Number of defined boundary faces : 926
		Number of undefined boundary faces : 0
	Checking patch -> block consistency

Creating block offsets
Creating merge list (geometric search)...

Creating polyMesh from blockMesh
Creating patches
Creating cells
Creating points with scale 1
    Block 0 cell size :
        i : 0.07925 .. 0.07925
        j : 0.02475 .. 0.02475
        k : 0.612959 .. 0.612959

    Block 1 cell size :
        i : 0.07925 .. 0.07925
        j : 0.0250052 .. 0.0250052
        k : 0.591789 .. 0.591789

    Block 2 cell size :
        i : 0.07925 .. 0.07925
        j : 0.0252499 .. 0.0252499
        k : 0.613631 .. 0.613631

    Block 3 cell size :
        i : 0.0760862 .. 0.0760862
        j : 0.0249894 .. 0.0249894
        k : 0.634109 .. 0.634109

    Block 4 cell size :
        i : 0.0356347 .. 0.0356347
        j : 0.034504 .. 0.034504
        k : 0.612959 .. 0.612959

    Block 5 cell size :
        i : 0.07925 .. 0.07925
        j : 0.02475 .. 0.02475
        k : 0.584593 .. 0.584593

    Block 6 cell size :
        i : 0.07925 .. 0.07925
        j : 0.0250052 .. 0.0250052
        k : 0.567908 .. 0.567908

    Block 7 cell size :
        i : 0.07925 .. 0.07925
        j : 0.0252499 .. 0.0252499
        k : 0.585123 .. 0.585123

    Block 8 cell size :
        i : 0.0760862 .. 0.0760862
        j : 0.0249894 .. 0.0249894
        k : 0.601262 .. 0.601262

    Block 9 cell size :
        i : 0.0356347 .. 0.0356347
        j : 0.034504 .. 0.034504
        k : 0.584593 .. 0.584593

    Block 10 cell size :
        i : 0.07925 .. 0.07925
        j : 0.02475 .. 0.02475
        k : 0.556311 .. 0.556311

    Block 11 cell size :
        i : 0.07925 .. 0.07925
        j : 0.0250052 .. 0.0250052
        k : 0.544143 .. 0.544143

    Block 12 cell size :
        i : 0.07925 .. 0.07925
        j : 0.0252499 .. 0.0252499
        k : 0.556697 .. 0.556697

    Block 13 cell size :
        i : 0.0760862 .. 0.0760862
        j : 0.0249894 .. 0.0249894
        k : 0.568467 .. 0.568467

    Block 14 cell size :
        i : 0.0356347 .. 0.0356347
        j : 0.034504 .. 0.034504
        k : 0.556311 .. 0.556311

    Block 15 cell size :
        i : 0.07925 .. 0.07925
        j : 0.02475 .. 0.02475
        k : 0.528124 .. 0.528124

    Block 16 cell size :
        i : 0.07925 .. 0.07925
        j : 0.0250052 .. 0.0250052
        k : 0.520472 .. 0.520472

    Block 17 cell size :
        i : 0.07925 .. 0.07925
        j : 0.0252499 .. 0.0252499
        k : 0.528367 .. 0.528367

    Block 18 cell size :
        i : 0.0760862 .. 0.0760862
        j : 0.0249894 .. 0.0249894
        k : 0.53577 .. 0.53577

    Block 19 cell size :
        i : 0.0356347 .. 0.0356347
        j : 0.034504 .. 0.034504
        k : 0.528124 .. 0.528124

    Block 20 cell size :
        i : 0.07925 .. 0.07925
        j : 0.02475 .. 0.02475
        k : 0.50005 .. 0.50005

    Block 21 cell size :
        i : 0.07925 .. 0.07925
        j : 0.0250052 .. 0.0250052
        k : 0.496895 .. 0.496895

    Block 22 cell size :
        i : 0.07925 .. 0.07925
        j : 0.0252499 .. 0.0252499
        k : 0.500151 .. 0.500151

    Block 23 cell size :
        i : 0.0760862 .. 0.0760862
        j : 0.0249894 .. 0.0249894
        k : 0.503203 .. 0.503203

    Block 24 cell size :
        i : 0.0356347 .. 0.0356347
        j : 0.034504 .. 0.034504
        k : 0.50005 .. 0.50005

    Block 25 cell size :
        i : 0.07925 .. 0.07925
        j : 0.02475 .. 0.02475
        k : 0.472109 .. 0.472109

    Block 26 cell size :
        i : 0.07925 .. 0.07925
        j : 0.0250052 .. 0.0250052
        k : 0.47343 .. 0.47343

    Block 27 cell size :
        i : 0.07925 .. 0.07925
        j : 0.0252499 .. 0.0252499
        k : 0.472067 .. 0.472067

    Block 28 cell size :
        i : 0.0760862 .. 0.0760862
        j : 0.0249894 .. 0.0249894
        k : 0.47079 .. 0.47079

    Block 29 cell size :
        i : 0.0356347 .. 0.0356347
        j : 0.034504 .. 0.034504
        k : 0.472109 .. 0.472109

    Block 30 cell size :
        i : 0.07925 .. 0.07925
        j : 0.02475 .. 0.02475
        k : 0.444325 .. 0.444325

    Block 31 cell size :
        i : 0.07925 .. 0.07925
        j : 0.0250052 .. 0.0250052
        k : 0.450107 .. 0.450107

    Block 32 cell size :
        i : 0.07925 .. 0.07925
        j : 0.0252499 .. 0.0252499
        k : 0.444142 .. 0.444142

    Block 33 cell size :
        i : 0.0760862 .. 0.0760862
        j : 0.0249894 .. 0.0249894
        k : 0.438551 .. 0.438551

    Block 34 cell size :
        i : 0.0356347 .. 0.0356347
        j : 0.034504 .. 0.034504
        k : 0.444325 .. 0.444325

    Block 35 cell size :
        i : 0.07925 .. 0.07925
        j : 0.02475 .. 0.02475
        k : 0.416731 .. 0.416731

    Block 36 cell size :
        i : 0.07925 .. 0.07925
        j : 0.0250052 .. 0.0250052
        k : 0.426968 .. 0.426968

    Block 37 cell size :
        i : 0.07925 .. 0.07925
        j : 0.0252499 .. 0.0252499
        k : 0.416406 .. 0.416406

    Block 38 cell size :
        i : 0.0760862 .. 0.0760862
        j : 0.0249894 .. 0.0249894
        k : 0.406508 .. 0.406508

    Block 39 cell size :
        i : 0.0356347 .. 0.0356347
        j : 0.034504 .. 0.034504
        k : 0.416731 .. 0.416731

    Block 40 cell size :
        i : 0.07925 .. 0.07925
        j : 0.02475 .. 0.02475
        k : 0.389365 .. 0.389365

    Block 41 cell size :
        i : 0.07925 .. 0.07925
        j : 0.0250052 .. 0.0250052
        k : 0.404065 .. 0.404065

    Block 42 cell size :
        i : 0.07925 .. 0.07925
        j : 0.0252499 .. 0.0252499
        k : 0.388899 .. 0.388899

    Block 43 cell size :
        i : 0.0760862 .. 0.0760862
        j : 0.0249894 .. 0.0249894
        k : 0.374691 .. 0.374691

    Block 44 cell size :
        i : 0.0356347 .. 0.0356347
        j : 0.034504 .. 0.034504
        k : 0.389365 .. 0.389365

    Block 45 cell size :
        i : 0.07925 .. 0.07925
        j : 0.02475 .. 0.02475
        k : 0.362281 .. 0.362281

    Block 46 cell size :
        i : 0.07925 .. 0.07925
        j : 0.0250052 .. 0.0250052
        k : 0.381457 .. 0.381457

    Block 47 cell size :
        i : 0.07925 .. 0.07925
        j : 0.0252499 .. 0.0252499
        k : 0.361673 .. 0.361673

    Block 48 cell size :
        i : 0.0760862 .. 0.0760862
        j : 0.0249894 .. 0.0249894
        k : 0.343144 .. 0.343144

    Block 49 cell size :
        i : 0.0356347 .. 0.0356347
        j : 0.034504 .. 0.034504
        k : 0.362281 .. 0.362281

    Block 50 cell size :
        i : 0.07925 .. 0.07925
        j : 0.02475 .. 0.02475
        k : 0.335546 .. 0.335546

    Block 51 cell size :
        i : 0.07925 .. 0.07925
        j : 0.0250052 .. 0.0250052
        k : 0.359215 .. 0.359215

    Block 52 cell size :
        i : 0.07925 .. 0.07925
        j : 0.0252499 .. 0.0252499
        k : 0.334795 .. 0.334795

    Block 53 cell size :
        i : 0.0760862 .. 0.0760862
        j : 0.0249894 .. 0.0249894
        k : 0.311929 .. 0.311929

    Block 54 cell size :
        i : 0.0356347 .. 0.0356347
        j : 0.034504 .. 0.034504
        k : 0.335546 .. 0.335546

    Block 55 cell size :
        i : 0.07925 .. 0.07925
        j : 0.02475 .. 0.02475
        k : 0.309251 .. 0.309251

    Block 56 cell size :
        i : 0.07925 .. 0.07925
        j : 0.0250052 .. 0.0250052
        k : 0.337426 .. 0.337426

    Block 57 cell size :
        i : 0.07925 .. 0.07925
        j : 0.0252499 .. 0.0252499
        k : 0.308358 .. 0.308358

    Block 58 cell size :
        i : 0.0760862 .. 0.0760862
        j : 0.0249894 .. 0.0249894
        k : 0.281141 .. 0.281141

    Block 59 cell size :
        i : 0.0356347 .. 0.0356347
        j : 0.034504 .. 0.034504
        k : 0.309251 .. 0.309251

    Block 60 cell size :
        i : 0.07925 .. 0.07925
        j : 0.02475 .. 0.02475
        k : 0.283519 .. 0.283519

    Block 61 cell size :
        i : 0.07925 .. 0.07925
        j : 0.0250052 .. 0.0250052
        k : 0.316204 .. 0.316204

    Block 62 cell size :
        i : 0.07925 .. 0.07925
        j : 0.0252499 .. 0.0252499
        k : 0.282482 .. 0.282482

    Block 63 cell size :
        i : 0.0760862 .. 0.0760862
        j : 0.0249894 .. 0.0249894
        k : 0.250912 .. 0.250912

    Block 64 cell size :
        i : 0.0356347 .. 0.0356347
        j : 0.034504 .. 0.034504
        k : 0.283519 .. 0.283519

    Block 65 cell size :
        i : 0.07925 .. 0.07925
        j : 0.02475 .. 0.02475
        k : 0.258517 .. 0.258517

    Block 66 cell size :
        i : 0.07925 .. 0.07925
        j : 0.0250052 .. 0.0250052
        k : 0.295702 .. 0.295702

    Block 67 cell size :
        i : 0.07925 .. 0.07925
        j : 0.0252499 .. 0.0252499
        k : 0.257337 .. 0.257337

    Block 68 cell size :
        i : 0.0760862 .. 0.0760862
        j : 0.0249894 .. 0.0249894
        k : 0.221427 .. 0.221427

    Block 69 cell size :
        i : 0.0356347 .. 0.0356347
        j : 0.034504 .. 0.034504
        k : 0.258517 .. 0.258517

    Block 70 cell size :
        i : 0.07925 .. 0.07925
        j : 0.02475 .. 0.02475
        k : 0.234479 .. 0.234479

    Block 71 cell size :
        i : 0.07925 .. 0.07925
        j : 0.0250052 .. 0.0250052
        k : 0.27614 .. 0.27614

    Block 72 cell size :
        i : 0.07925 .. 0.07925
        j : 0.0252499 .. 0.0252499
        k : 0.233158 .. 0.233158

    Block 73 cell size :
        i : 0.0760862 .. 0.0760862
        j : 0.0249894 .. 0.0249894
        k : 0.192946 .. 0.192946

    Block 74 cell size :
        i : 0.0356347 .. 0.0356347
        j : 0.034504 .. 0.034504
        k : 0.234479 .. 0.234479

    Block 75 cell size :
        i : 0.07925 .. 0.07925
        j : 0.02475 .. 0.02475
        k : 0.213154 .. 0.213154

    Block 76 cell size :
        i : 0.07925 .. 0.07925
        j : 0.0250052 .. 0.0250052
        k : 0.258865 .. 0.258865

    Block 77 cell size :
        i : 0.07925 .. 0.07925
        j : 0.0252499 .. 0.0252499
        k : 0.211706 .. 0.211706

    Block 78 cell size :
        i : 0.0760862 .. 0.0760862
        j : 0.0249894 .. 0.0249894
        k : 0.167631 .. 0.167631

    Block 79 cell size :
        i : 0.0356347 .. 0.0356347
        j : 0.034504 .. 0.034504
        k : 0.213154 .. 0.213154

    Block 80 cell size :
        i : 0.07925 .. 0.07925
        j : 0.02475 .. 0.02475
        k : 0.20743 .. 0.20743

    Block 81 cell size :
        i : 0.07925 .. 0.07925
        j : 0.0250052 .. 0.0250052
        k : 0.253356 .. 0.253356

    Block 82 cell size :
        i : 0.07925 .. 0.07925
        j : 0.0252499 .. 0.0252499
        k : 0.205974 .. 0.205974

    Block 83 cell size :
        i : 0.0760862 .. 0.0760862
        j : 0.0249894 .. 0.0249894
        k : 0.161698 .. 0.161698

    Block 84 cell size :
        i : 0.0356347 .. 0.0356347
        j : 0.034504 .. 0.034504
        k : 0.20743 .. 0.20743

    Block 85 cell size :
        i : 0.07925 .. 0.07925
        j : 0.02475 .. 0.02475
        k : 0.206867 .. 0.206867

    Block 86 cell size :
        i : 0.07925 .. 0.07925
        j : 0.0250052 .. 0.0250052
        k : 0.252038 .. 0.252038

    Block 87 cell size :
        i : 0.07925 .. 0.07925
        j : 0.0252499 .. 0.0252499
        k : 0.205436 .. 0.205436

    Block 88 cell size :
        i : 0.0760862 .. 0.0760862
        j : 0.0249894 .. 0.0249894
        k : 0.16188 .. 0.16188

    Block 89 cell size :
        i : 0.0356347 .. 0.0356347
        j : 0.034504 .. 0.034504
        k : 0.206867 .. 0.206867

    Block 90 cell size :
        i : 0.07925 .. 0.07925
        j : 0.02475 .. 0.02475
        k : 0.207897 .. 0.207897

    Block 91 cell size :
        i : 0.07925 .. 0.07925
        j : 0.0250052 .. 0.0250052
        k : 0.252312 .. 0.252312

    Block 92 cell size :
        i : 0.07925 .. 0.07925
        j : 0.0252499 .. 0.0252499
        k : 0.20649 .. 0.20649

    Block 93 cell size :
        i : 0.0760862 .. 0.0760862
        j : 0.0249894 .. 0.0249894
        k : 0.163653 .. 0.163653

    Block 94 cell size :
        i : 0.0356347 .. 0.0356347
        j : 0.034504 .. 0.034504
        k : 0.207897 .. 0.207897

    Block 95 cell size :
        i : 0.07925 .. 0.07925
        j : 0.02475 .. 0.02475
        k : 0.210496 .. 0.210496

    Block 96 cell size :
        i : 0.07925 .. 0.07925
        j : 0.0250052 .. 0.0250052
        k : 0.254156 .. 0.254156

    Block 97 cell size :
        i : 0.07925 .. 0.07925
        j : 0.0252499 .. 0.0252499
        k : 0.209112 .. 0.209112

    Block 98 cell size :
        i : 0.0760862 .. 0.0760862
        j : 0.0249894 .. 0.0249894
        k : 0.166993 .. 0.166993

    Block 99 cell size :
        i : 0.0356347 .. 0.0356347
        j : 0.034504 .. 0.034504
        k : 0.210496 .. 0.210496

    Block 100 cell size :
        i : 0.07925 .. 0.07925
        j : 0.02475 .. 0.02475
        k : 0.214608 .. 0.214608

    Block 101 cell size :
        i : 0.07925 .. 0.07925
        j : 0.0250052 .. 0.0250052
        k : 0.257515 .. 0.257515

    Block 102 cell size :
        i : 0.07925 .. 0.07925
        j : 0.0252499 .. 0.0252499
        k : 0.213247 .. 0.213247

    Block 103 cell size :
        i : 0.0760862 .. 0.0760862
        j : 0.0249894 .. 0.0249894
        k : 0.17184 .. 0.17184

    Block 104 cell size :
        i : 0.0356347 .. 0.0356347
        j : 0.034504 .. 0.034504
        k : 0.214608 .. 0.214608

    Block 105 cell size :
        i : 0.07925 .. 0.07925
        j : 0.02475 .. 0.02475
        k : 0.220146 .. 0.220146

    Block 106 cell size :
        i : 0.07925 .. 0.07925
        j : 0.0250052 .. 0.0250052
        k : 0.262305 .. 0.262305

    Block 107 cell size :
        i : 0.07925 .. 0.07925
        j : 0.0252499 .. 0.0252499
        k : 0.21881 .. 0.21881

    Block 108 cell size :
        i : 0.0760862 .. 0.0760862
        j : 0.0249894 .. 0.0249894
        k : 0.178111 .. 0.178111

    Block 109 cell size :
        i : 0.0356347 .. 0.0356347
        j : 0.034504 .. 0.034504
        k : 0.220146 .. 0.220146

    Block 110 cell size :
        i : 0.07925 .. 0.07925
        j : 0.02475 .. 0.02475
        k : 0.227008 .. 0.227008

    Block 111 cell size :
        i : 0.07925 .. 0.07925
        j : 0.0250052 .. 0.0250052
        k : 0.268419 .. 0.268419

    Block 112 cell size :
        i : 0.07925 .. 0.07925
        j : 0.0252499 .. 0.0252499
        k : 0.225695 .. 0.225695

    Block 113 cell size :
        i : 0.0760862 .. 0.0760862
        j : 0.0249894 .. 0.0249894
        k : 0.185704 .. 0.185704

    Block 114 cell size :
        i : 0.0356347 .. 0.0356347
        j : 0.034504 .. 0.034504
        k : 0.227008 .. 0.227008

    Block 115 cell size :
        i : 0.07925 .. 0.07925
        j : 0.02475 .. 0.02475
        k : 0.235077 .. 0.235077

    Block 116 cell size :
        i : 0.07925 .. 0.07925
        j : 0.0250052 .. 0.0250052
        k : 0.275738 .. 0.275738

    Block 117 cell size :
        i : 0.07925 .. 0.07925
        j : 0.0252499 .. 0.0252499
        k : 0.233787 .. 0.233787

    Block 118 cell size :
        i : 0.0760862 .. 0.0760862
        j : 0.0249894 .. 0.0249894
        k : 0.194507 .. 0.194507

    Block 119 cell size :
        i : 0.0356347 .. 0.0356347
        j : 0.034504 .. 0.034504
        k : 0.235077 .. 0.235077

    Block 120 cell size :
        i : 0.07925 .. 0.07925
        j : 0.02475 .. 0.02475
        k : 0.244233 .. 0.244233

    Block 121 cell size :
        i : 0.07925 .. 0.07925
        j : 0.0250052 .. 0.0250052
        k : 0.284139 .. 0.284139

    Block 122 cell size :
        i : 0.07925 .. 0.07925
        j : 0.0252499 .. 0.0252499
        k : 0.242967 .. 0.242967

    Block 123 cell size :
        i : 0.0760862 .. 0.0760862
        j : 0.0249894 .. 0.0249894
        k : 0.204408 .. 0.204408

    Block 124 cell size :
        i : 0.0356347 .. 0.0356347
        j : 0.034504 .. 0.034504
        k : 0.244233 .. 0.244233

    Block 125 cell size :
        i : 0.07925 .. 0.07925
        j : 0.02475 .. 0.02475
        k : 0.254359 .. 0.254359

    Block 126 cell size :
        i : 0.07925 .. 0.07925
        j : 0.0250052 .. 0.0250052
        k : 0.293499 .. 0.293499

    Block 127 cell size :
        i : 0.07925 .. 0.07925
        j : 0.0252499 .. 0.0252499
        k : 0.253118 .. 0.253118

    Block 128 cell size :
        i : 0.0760862 .. 0.0760862
        j : 0.0249894 .. 0.0249894
        k : 0.215294 .. 0.215294

    Block 129 cell size :
        i : 0.0356347 .. 0.0356347
        j : 0.034504 .. 0.034504
        k : 0.254359 .. 0.254359

    Block 130 cell size :
        i : 0.07925 .. 0.07925
        j : 0.02475 .. 0.02475
        k : 0.255863 .. 0.255863

    Block 131 cell size :
        i : 0.07925 .. 0.07925
        j : 0.0250052 .. 0.0250052
        k : 0.294653 .. 0.294653

    Block 132 cell size :
        i : 0.07925 .. 0.07925
        j : 0.0252499 .. 0.0252499
        k : 0.254632 .. 0.254632

    Block 133 cell size :
        i : 0.0760862 .. 0.0760862
        j : 0.0249894 .. 0.0249894
        k : 0.21715 .. 0.21715

    Block 134 cell size :
        i : 0.0356347 .. 0.0356347
        j : 0.034504 .. 0.034504
        k : 0.255863 .. 0.255863

    Block 135 cell size :
        i : 0.07925 .. 0.07925
        j : 0.02475 .. 0.02475
        k : 0.248251 .. 0.248251

    Block 136 cell size :
        i : 0.07925 .. 0.07925
        j : 0.0250052 .. 0.0250052
        k : 0.287166 .. 0.287166

    Block 137 cell size :
        i : 0.07925 .. 0.07925
        j : 0.0252499 .. 0.0252499
        k : 0.247017 .. 0.247017

    Block 138 cell size :
        i : 0.0760862 .. 0.0760862
        j : 0.0249894 .. 0.0249894
        k : 0.209419 .. 0.209419

    Block 139 cell size :
        i : 0.0356347 .. 0.0356347
        j : 0.034504 .. 0.034504
        k : 0.248251 .. 0.248251

    Block 140 cell size :
        i : 0.07925 .. 0.07925
        j : 0.02475 .. 0.02475
        k : 0.242153 .. 0.242153

    Block 141 cell size :
        i : 0.07925 .. 0.07925
        j : 0.0250052 .. 0.0250052
        k : 0.281198 .. 0.281198

    Block 142 cell size :
        i : 0.07925 .. 0.07925
        j : 0.0252499 .. 0.0252499
        k : 0.240915 .. 0.240915

    Block 143 cell size :
        i : 0.0760862 .. 0.0760862
        j : 0.0249894 .. 0.0249894
        k : 0.203194 .. 0.203194

    Block 144 cell size :
        i : 0.0356347 .. 0.0356347
        j : 0.0345039 .. 0.0345039
        k : 0.242153 .. 0.242153

    Block 145 cell size :
        i : 0.07925 .. 0.07925
        j : 0.02475 .. 0.02475
        k : 0.237693 .. 0.237693

    Block 146 cell size :
        i : 0.07925 .. 0.07925
        j : 0.0250052 .. 0.0250052
        k : 0.276871 .. 0.276871

    Block 147 cell size :
        i : 0.07925 .. 0.07925
        j : 0.0252499 .. 0.0252499
        k : 0.23645 .. 0.23645

    Block 148 cell size :
        i : 0.0760862 .. 0.0760862
        j : 0.0249894 .. 0.0249894
        k : 0.1986 .. 0.1986

    Block 149 cell size :
        i : 0.0356347 .. 0.0356347
        j : 0.034504 .. 0.034504
        k : 0.237693 .. 0.237693

    Block 150 cell size :
        i : 0.07925 .. 0.07925
        j : 0.02475 .. 0.02475
        k : 0.234961 .. 0.234961

    Block 151 cell size :
        i : 0.07925 .. 0.07925
        j : 0.0250052 .. 0.0250052
        k : 0.274275 .. 0.274275

    Block 152 cell size :
        i : 0.07925 .. 0.07925
        j : 0.0252499 .. 0.0252499
        k : 0.233714 .. 0.233714

    Block 153 cell size :
        i : 0.0760862 .. 0.0760862
        j : 0.0249894 .. 0.0249894
        k : 0.195733 .. 0.195733

    Block 154 cell size :
        i : 0.0356347 .. 0.0356347
        j : 0.034504 .. 0.034504
        k : 0.234961 .. 0.234961

    Block 155 cell size :
        i : 0.07925 .. 0.07925
        j : 0.02475 .. 0.02475
        k : 0.23402 .. 0.23402

    Block 156 cell size :
        i : 0.07925 .. 0.07925
        j : 0.0250052 .. 0.0250052
        k : 0.27347 .. 0.27347

    Block 157 cell size :
        i : 0.07925 .. 0.07925
        j : 0.0252499 .. 0.0252499
        k : 0.232769 .. 0.232769

    Block 158 cell size :
        i : 0.0760862 .. 0.0760862
        j : 0.0249894 .. 0.0249894
        k : 0.194656 .. 0.194656

    Block 159 cell size :
        i : 0.0356347 .. 0.0356347
        j : 0.034504 .. 0.034504
        k : 0.23402 .. 0.23402

    Block 160 cell size :
        i : 0.07925 .. 0.07925
        j : 0.02475 .. 0.02475
        k : 0.234891 .. 0.234891

    Block 161 cell size :
        i : 0.07925 .. 0.07925
        j : 0.0250052 .. 0.0250052
        k : 0.274475 .. 0.274475

    Block 162 cell size :
        i : 0.07925 .. 0.07925
        j : 0.0252499 .. 0.0252499
        k : 0.233636 .. 0.233636

    Block 163 cell size :
        i : 0.0760862 .. 0.0760862
        j : 0.0249894 .. 0.0249894
        k : 0.195393 .. 0.195393

    Block 164 cell size :
        i : 0.0356347 .. 0.0356347
        j : 0.034504 .. 0.034504
        k : 0.234891 .. 0.234891

    Block 165 cell size :
        i : 0.07925 .. 0.07925
        j : 0.02475 .. 0.02475
        k : 0.237554 .. 0.237554

    Block 166 cell size :
        i : 0.07925 .. 0.07925
        j : 0.0250052 .. 0.0250052
        k : 0.277271 .. 0.277271

    Block 167 cell size :
        i : 0.07925 .. 0.07925
        j : 0.0252499 .. 0.0252499
        k : 0.236294 .. 0.236294

    Block 168 cell size :
        i : 0.0760862 .. 0.0760862
        j : 0.0249894 .. 0.0249894
        k : 0.197921 .. 0.197921

    Block 169 cell size :
        i : 0.0356347 .. 0.0356347
        j : 0.034504 .. 0.034504
        k : 0.237554 .. 0.237554

    Block 170 cell size :
        i : 0.07925 .. 0.07925
        j : 0.02475 .. 0.02475
        k : 0.241949 .. 0.241949

    Block 171 cell size :
        i : 0.07925 .. 0.07925
        j : 0.0250052 .. 0.0250052
        k : 0.2818 .. 0.2818

    Block 172 cell size :
        i : 0.07925 .. 0.07925
        j : 0.0252499 .. 0.0252499
        k : 0.240685 .. 0.240685

    Block 173 cell size :
        i : 0.0760862 .. 0.0760862
        j : 0.0249894 .. 0.0249894
        k : 0.202181 .. 0.202181

    Block 174 cell size :
        i : 0.0356347 .. 0.0356347
        j : 0.034504 .. 0.034504
        k : 0.241949 .. 0.241949

    Block 175 cell size :
        i : 0.07925 .. 0.07925
        j : 0.02475 .. 0.02475
        k : 0.247985 .. 0.247985

    Block 176 cell size :
        i : 0.07925 .. 0.07925
        j : 0.0250052 .. 0.0250052
        k : 0.287972 .. 0.287972

    Block 177 cell size :
        i : 0.07925 .. 0.07925
        j : 0.0252499 .. 0.0252499
        k : 0.246717 .. 0.246717

    Block 178 cell size :
        i : 0.0760862 .. 0.0760862
        j : 0.0249894 .. 0.0249894
        k : 0.208079 .. 0.208079

    Block 179 cell size :
        i : 0.0356347 .. 0.0356347
        j : 0.034504 .. 0.034504
        k : 0.247985 .. 0.247985

    Block 180 cell size :
        i : 0.07925 .. 0.07925
        j : 0.02475 .. 0.02475
        k : 0.252949 .. 0.252949

    Block 181 cell size :
        i : 0.07925 .. 0.07925
        j : 0.0250052 .. 0.0250052
        k : 0.293048 .. 0.293048

    Block 182 cell size :
        i : 0.07925 .. 0.07925
        j : 0.0252499 .. 0.0252499
        k : 0.251677 .. 0.251677

    Block 183 cell size :
        i : 0.0760862 .. 0.0760862
        j : 0.0249894 .. 0.0249894
        k : 0.212929 .. 0.212929

    Block 184 cell size :
        i : 0.0356347 .. 0.0356347
        j : 0.034504 .. 0.034504
        k : 0.252949 .. 0.252949

    Block 185 cell size :
        i : 0.07925 .. 0.07925
        j : 0.02475 .. 0.02475
        k : 0.247294 .. 0.247294

    Block 186 cell size :
        i : 0.07925 .. 0.07925
        j : 0.0250052 .. 0.0250052
        k : 0.287381 .. 0.287381

    Block 187 cell size :
        i : 0.07925 .. 0.07925
        j : 0.0252499 .. 0.0252499
        k : 0.246022 .. 0.246022

    Block 188 cell size :
        i : 0.0760862 .. 0.0760862
        j : 0.0249894 .. 0.0249894
        k : 0.207288 .. 0.207288

    Block 189 cell size :
        i : 0.0356347 .. 0.0356347
        j : 0.034504 .. 0.034504
        k : 0.247294 .. 0.247294

    Block 190 cell size :
        i : 0.07925 .. 0.07925
        j : 0.02475 .. 0.02475
        k : 0.241526 .. 0.241526

    Block 191 cell size :
        i : 0.07925 .. 0.07925
        j : 0.0250052 .. 0.0250052
        k : 0.281585 .. 0.281585

    Block 192 cell size :
        i : 0.07925 .. 0.07925
        j : 0.0252499 .. 0.0252499
        k : 0.240255 .. 0.240255

    Block 193 cell size :
        i : 0.0760862 .. 0.0760862
        j : 0.0249894 .. 0.0249894
        k : 0.20155 .. 0.20155

    Block 194 cell size :
        i : 0.0356347 .. 0.0356347
        j : 0.034504 .. 0.034504
        k : 0.241526 .. 0.241526

    Block 195 cell size :
        i : 0.07925 .. 0.07925
        j : 0.02475 .. 0.02475
        k : 0.237246 .. 0.237246

    Block 196 cell size :
        i : 0.07925 .. 0.07925
        j : 0.0250052 .. 0.0250052
        k : 0.277279 .. 0.277279

    Block 197 cell size :
        i : 0.07925 .. 0.07925
        j : 0.0252499 .. 0.0252499
        k : 0.235976 .. 0.235976

    Block 198 cell size :
        i : 0.0760862 .. 0.0760862
        j : 0.0249894 .. 0.0249894
        k : 0.197299 .. 0.197299

    Block 199 cell size :
        i : 0.0356347 .. 0.0356347
        j : 0.034504 .. 0.034504
        k : 0.237246 .. 0.237246

    Block 200 cell size :
        i : 0.07925 .. 0.07925
        j : 0.02475 .. 0.02475
        k : 0.234536 .. 0.234536

    Block 201 cell size :
        i : 0.07925 .. 0.07925
        j : 0.0250052 .. 0.0250052
        k : 0.274544 .. 0.274544

    Block 202 cell size :
        i : 0.07925 .. 0.07925
        j : 0.0252499 .. 0.0252499
        k : 0.233267 .. 0.233267

    Block 203 cell size :
        i : 0.0760862 .. 0.0760862
        j : 0.0249894 .. 0.0249894
        k : 0.194615 .. 0.194615

    Block 204 cell size :
        i : 0.0356347 .. 0.0356347
        j : 0.034504 .. 0.034504
        k : 0.234536 .. 0.234536

    Block 205 cell size :
        i : 0.07925 .. 0.07925
        j : 0.02475 .. 0.02475
        k : 0.23345 .. 0.23345

    Block 206 cell size :
        i : 0.07925 .. 0.07925
        j : 0.0250052 .. 0.0250052
        k : 0.273435 .. 0.273435

    Block 207 cell size :
        i : 0.07925 .. 0.07925
        j : 0.0252499 .. 0.0252499
        k : 0.232182 .. 0.232182

    Block 208 cell size :
        i : 0.0760862 .. 0.0760862
        j : 0.0249894 .. 0.0249894
        k : 0.193553 .. 0.193553

    Block 209 cell size :
        i : 0.0356347 .. 0.0356347
        j : 0.034504 .. 0.034504
        k : 0.23345 .. 0.23345

    Block 210 cell size :
        i : 0.07925 .. 0.07925
        j : 0.02475 .. 0.02475
        k : 0.234012 .. 0.234012

    Block 211 cell size :
        i : 0.07925 .. 0.07925
        j : 0.0250052 .. 0.0250052
        k : 0.273974 .. 0.273974

    Block 212 cell size :
        i : 0.07925 .. 0.07925
        j : 0.0252499 .. 0.0252499
        k : 0.232744 .. 0.232744

    Block 213 cell size :
        i : 0.0760862 .. 0.0760862
        j : 0.0249894 .. 0.0249894
        k : 0.194137 .. 0.194137

    Block 214 cell size :
        i : 0.0356347 .. 0.0356347
        j : 0.034504 .. 0.034504
        k : 0.234012 .. 0.234012

    Block 215 cell size :
        i : 0.07925 .. 0.07925
        j : 0.02475 .. 0.02475
        k : 0.236208 .. 0.236208

    Block 216 cell size :
        i : 0.07925 .. 0.07925
        j : 0.0250052 .. 0.0250052
        k : 0.276149 .. 0.276149

    Block 217 cell size :
        i : 0.07925 .. 0.07925
        j : 0.0252499 .. 0.0252499
        k : 0.234942 .. 0.234942

    Block 218 cell size :
        i : 0.0760862 .. 0.0760862
        j : 0.0249894 .. 0.0249894
        k : 0.196354 .. 0.196354

    Block 219 cell size :
        i : 0.0356347 .. 0.0356347
        j : 0.034504 .. 0.034504
        k : 0.236208 .. 0.236208

    Block 220 cell size :
        i : 0.07925 .. 0.07925
        j : 0.02475 .. 0.02475
        k : 0.239996 .. 0.239996

    Block 221 cell size :
        i : 0.07925 .. 0.07925
        j : 0.0250052 .. 0.0250052
        k : 0.279917 .. 0.279917

    Block 222 cell size :
        i : 0.07925 .. 0.07925
        j : 0.0252499 .. 0.0252499
        k : 0.238729 .. 0.238729

    Block 223 cell size :
        i : 0.0760862 .. 0.0760862
        j : 0.0249894 .. 0.0249894
        k : 0.200159 .. 0.200159

    Block 224 cell size :
        i : 0.0356347 .. 0.0356347
        j : 0.034504 .. 0.034504
        k : 0.239996 .. 0.239996

    Block 225 cell size :
        i : 0.07925 .. 0.07925
        j : 0.02475 .. 0.02475
        k : 0.245299 .. 0.245299

    Block 226 cell size :
        i : 0.07925 .. 0.07925
        j : 0.0250052 .. 0.0250052
        k : 0.285203 .. 0.285203

    Block 227 cell size :
        i : 0.07925 .. 0.07925
        j : 0.0252499 .. 0.0252499
        k : 0.244034 .. 0.244034

    Block 228 cell size :
        i : 0.0760862 .. 0.0760862
        j : 0.0249894 .. 0.0249894
        k : 0.205477 .. 0.205477

    Block 229 cell size :
        i : 0.0356347 .. 0.0356347
        j : 0.0345039 .. 0.0345039
        k : 0.245299 .. 0.245299

    Block 230 cell size :
        i : 0.07925 .. 0.07925
        j : 0.02475 .. 0.02475
        k : 0.251824 .. 0.251824

    Block 231 cell size :
        i : 0.07925 .. 0.07925
        j : 0.0250052 .. 0.0250052
        k : 0.291712 .. 0.291712

    Block 232 cell size :
        i : 0.07925 .. 0.07925
        j : 0.0252499 .. 0.0252499
        k : 0.250559 .. 0.250559

    Block 233 cell size :
        i : 0.0760862 .. 0.0760862
        j : 0.0249894 .. 0.0249894
        k : 0.212015 .. 0.212015

    Block 234 cell size :
        i : 0.0356347 .. 0.0356347
        j : 0.034504 .. 0.034504
        k : 0.251824 .. 0.251824

    Block 235 cell size :
        i : 0.07925 .. 0.07925
        j : 0.02475 .. 0.02475
        k : 0.249659 .. 0.249659

    Block 236 cell size :
        i : 0.07925 .. 0.07925
        j : 0.0250052 .. 0.0250052
        k : 0.289539 .. 0.289539

    Block 237 cell size :
        i : 0.07925 .. 0.07925
        j : 0.0252499 .. 0.0252499
        k : 0.248394 .. 0.248394

    Block 238 cell size :
        i : 0.0760862 .. 0.0760862
        j : 0.0249894 .. 0.0249894
        k : 0.209858 .. 0.209858

    Block 239 cell size :
        i : 0.0356347 .. 0.0356347
        j : 0.034504 .. 0.034504
        k : 0.249659 .. 0.249659

    Block 240 cell size :
        i : 0.07925 .. 0.07925
        j : 0.02475 .. 0.02475
        k : 0.24327 .. 0.24327

    Block 241 cell size :
        i : 0.07925 .. 0.07925
        j : 0.0250052 .. 0.0250052
        k : 0.283148 .. 0.283148

    Block 242 cell size :
        i : 0.07925 .. 0.07925
        j : 0.0252499 .. 0.0252499
        k : 0.242006 .. 0.242006

    Block 243 cell size :
        i : 0.0760862 .. 0.0760862
        j : 0.0249894 .. 0.0249894
        k : 0.203475 .. 0.203475

    Block 244 cell size :
        i : 0.0356347 .. 0.0356347
        j : 0.034504 .. 0.034504
        k : 0.24327 .. 0.24327

    Block 245 cell size :
        i : 0.07925 .. 0.07925
        j : 0.02475 .. 0.02475
        k : 0.238354 .. 0.238354

    Block 246 cell size :
        i : 0.07925 .. 0.07925
        j : 0.0250052 .. 0.0250052
        k : 0.278231 .. 0.278231

    Block 247 cell size :
        i : 0.07925 .. 0.07925
        j : 0.0252499 .. 0.0252499
        k : 0.237089 .. 0.237089

    Block 248 cell size :
        i : 0.0760862 .. 0.0760862
        j : 0.0249894 .. 0.0249894
        k : 0.198561 .. 0.198561

    Block 249 cell size :
        i : 0.0356347 .. 0.0356347
        j : 0.034504 .. 0.034504
        k : 0.238354 .. 0.238354

    Block 250 cell size :
        i : 0.07925 .. 0.07925
        j : 0.02475 .. 0.02475
        k : 0.235002 .. 0.235002

    Block 251 cell size :
        i : 0.07925 .. 0.07925
        j : 0.0250052 .. 0.0250052
        k : 0.274881 .. 0.274881

    Block 252 cell size :
        i : 0.07925 .. 0.07925
        j : 0.0252499 .. 0.0252499
        k : 0.233737 .. 0.233737

    Block 253 cell size :
        i : 0.0760862 .. 0.0760862
        j : 0.0249894 .. 0.0249894
        k : 0.195209 .. 0.195209

    Block 254 cell size :
        i : 0.0356347 .. 0.0356347
        j : 0.034504 .. 0.034504
        k : 0.235002 .. 0.235002

    Block 255 cell size :
        i : 0.07925 .. 0.07925
        j : 0.02475 .. 0.02475
        k : 0.233281 .. 0.233281

    Block 256 cell size :
        i : 0.07925 .. 0.07925
        j : 0.0250052 .. 0.0250052
        k : 0.273163 .. 0.273163

    Block 257 cell size :
        i : 0.07925 .. 0.07925
        j : 0.0252499 .. 0.0252499
        k : 0.232017 .. 0.232017

    Block 258 cell size :
        i : 0.0760862 .. 0.0760862
        j : 0.0249894 .. 0.0249894
        k : 0.193487 .. 0.193487

    Block 259 cell size :
        i : 0.0356347 .. 0.0356347
        j : 0.034504 .. 0.034504
        k : 0.233281 .. 0.233281

    Block 260 cell size :
        i : 0.07925 .. 0.07925
        j : 0.02475 .. 0.02475
        k : 0.233229 .. 0.233229

    Block 261 cell size :
        i : 0.07925 .. 0.07925
        j : 0.0250052 .. 0.0250052
        k : 0.273115 .. 0.273115

    Block 262 cell size :
        i : 0.07925 .. 0.07925
        j : 0.0252499 .. 0.0252499
        k : 0.231964 .. 0.231964

    Block 263 cell size :
        i : 0.0760862 .. 0.0760862
        j : 0.0249894 .. 0.0249894
        k : 0.193431 .. 0.193431

    Block 264 cell size :
        i : 0.0356347 .. 0.0356347
        j : 0.034504 .. 0.034504
        k : 0.233229 .. 0.233229

    Block 265 cell size :
        i : 0.07925 .. 0.07925
        j : 0.02475 .. 0.02475
        k : 0.234847 .. 0.234847

    Block 266 cell size :
        i : 0.07925 .. 0.07925
        j : 0.0250052 .. 0.0250052
        k : 0.274737 .. 0.274737

    Block 267 cell size :
        i : 0.07925 .. 0.07925
        j : 0.0252499 .. 0.0252499
        k : 0.233581 .. 0.233581

    Block 268 cell size :
        i : 0.0760862 .. 0.0760862
        j : 0.0249894 .. 0.0249894
        k : 0.195043 .. 0.195043

    Block 269 cell size :
        i : 0.0356347 .. 0.0356347
        j : 0.034504 .. 0.034504
        k : 0.234847 .. 0.234847

    Block 270 cell size :
        i : 0.07925 .. 0.07925
        j : 0.02475 .. 0.02475
        k : 0.238099 .. 0.238099

    Block 271 cell size :
        i : 0.07925 .. 0.07925
        j : 0.0250052 .. 0.0250052
        k : 0.277996 .. 0.277996

    Block 272 cell size :
        i : 0.07925 .. 0.07925
        j : 0.0252499 .. 0.0252499
        k : 0.236834 .. 0.236834

    Block 273 cell size :
        i : 0.0760862 .. 0.0760862
        j : 0.0249894 .. 0.0249894
        k : 0.198288 .. 0.198288

    Block 274 cell size :
        i : 0.0356347 .. 0.0356347
        j : 0.034504 .. 0.034504
        k : 0.238099 .. 0.238099

    Block 275 cell size :
        i : 0.07925 .. 0.07925
        j : 0.02475 .. 0.02475
        k : 0.242921 .. 0.242921

    Block 276 cell size :
        i : 0.07925 .. 0.07925
        j : 0.0250052 .. 0.0250052
        k : 0.282825 .. 0.282825

    Block 277 cell size :
        i : 0.07925 .. 0.07925
        j : 0.0252499 .. 0.0252499
        k : 0.241655 .. 0.241655

    Block 278 cell size :
        i : 0.0760862 .. 0.0760862
        j : 0.0249894 .. 0.0249894
        k : 0.203099 .. 0.203099

    Block 279 cell size :
        i : 0.0356347 .. 0.0356347
        j : 0.034504 .. 0.034504
        k : 0.242921 .. 0.242921

    Block 280 cell size :
        i : 0.07925 .. 0.07925
        j : 0.02475 .. 0.02475
        k : 0.249221 .. 0.249221

    Block 281 cell size :
        i : 0.07925 .. 0.07925
        j : 0.0250052 .. 0.0250052
        k : 0.289136 .. 0.289136

    Block 282 cell size :
        i : 0.07925 .. 0.07925
        j : 0.0252499 .. 0.0252499
        k : 0.247955 .. 0.247955

    Block 283 cell size :
        i : 0.0760862 .. 0.0760862
        j : 0.0249894 .. 0.0249894
        k : 0.209386 .. 0.209386

    Block 284 cell size :
        i : 0.0356347 .. 0.0356347
        j : 0.034504 .. 0.034504
        k : 0.249221 .. 0.249221

    Block 285 cell size :
        i : 0.07925 .. 0.07925
        j : 0.02475 .. 0.02475
        k : 0.252398 .. 0.252398

    Block 286 cell size :
        i : 0.07925 .. 0.07925
        j : 0.0250052 .. 0.0250052
        k : 0.292318 .. 0.292318

    Block 287 cell size :
        i : 0.07925 .. 0.07925
        j : 0.0252499 .. 0.0252499
        k : 0.251132 .. 0.251132

    Block 288 cell size :
        i : 0.0760862 .. 0.0760862
        j : 0.0249894 .. 0.0249894
        k : 0.212556 .. 0.212556

    Block 289 cell size :
        i : 0.0356347 .. 0.0356347
        j : 0.034504 .. 0.034504
        k : 0.252398 .. 0.252398

    Block 290 cell size :
        i : 0.07925 .. 0.07925
        j : 0.02475 .. 0.02475
        k : 0.245918 .. 0.245918

    Block 291 cell size :
        i : 0.07925 .. 0.07925
        j : 0.0250052 .. 0.0250052
        k : 0.285832 .. 0.285832

    Block 292 cell size :
        i : 0.07925 .. 0.07925
        j : 0.0252499 .. 0.0252499
        k : 0.244652 .. 0.244652

    Block 293 cell size :
        i : 0.0760862 .. 0.0760862
        j : 0.0249894 .. 0.0249894
        k : 0.206086 .. 0.206086

    Block 294 cell size :
        i : 0.0356347 .. 0.0356347
        j : 0.034504 .. 0.034504
        k : 0.245918 .. 0.245918

    Block 295 cell size :
        i : 0.07925 .. 0.07925
        j : 0.02475 .. 0.02475
        k : 0.240366 .. 0.240366

    Block 296 cell size :
        i : 0.07925 .. 0.07925
        j : 0.0250052 .. 0.0250052
        k : 0.280273 .. 0.280273

    Block 297 cell size :
        i : 0.07925 .. 0.07925
        j : 0.0252499 .. 0.0252499
        k : 0.2391 .. 0.2391

    Block 298 cell size :
        i : 0.0760862 .. 0.0760862
        j : 0.0249894 .. 0.0249894
        k : 0.200542 .. 0.200542

    Block 299 cell size :
        i : 0.0356347 .. 0.0356347
        j : 0.034504 .. 0.034504
        k : 0.240366 .. 0.240366

    Block 300 cell size :
        i : 0.07925 .. 0.07925
        j : 0.02475 .. 0.02475
        k : 0.23634 .. 0.23634

    Block 301 cell size :
        i : 0.07925 .. 0.07925
        j : 0.0250052 .. 0.0250052
        k : 0.276244 .. 0.276244

    Block 302 cell size :
        i : 0.07925 .. 0.07925
        j : 0.0252499 .. 0.0252499
        k : 0.235074 .. 0.235074

    Block 303 cell size :
        i : 0.0760862 .. 0.0760862
        j : 0.0249894 .. 0.0249894
        k : 0.196522 .. 0.196522

    Block 304 cell size :
        i : 0.0356347 .. 0.0356347
        j : 0.034504 .. 0.034504
        k : 0.23634 .. 0.23634

    Block 305 cell size :
        i : 0.07925 .. 0.07925
        j : 0.02475 .. 0.02475
        k : 0.233919 .. 0.233919

    Block 306 cell size :
        i : 0.07925 .. 0.07925
        j : 0.0250052 .. 0.0250052
        k : 0.273821 .. 0.273821

    Block 307 cell size :
        i : 0.07925 .. 0.07925
        j : 0.0252499 .. 0.0252499
        k : 0.232654 .. 0.232654

    Block 308 cell size :
        i : 0.0760862 .. 0.0760862
        j : 0.0249894 .. 0.0249894
        k : 0.194105 .. 0.194105

    Block 309 cell size :
        i : 0.0356347 .. 0.0356347
        j : 0.034504 .. 0.034504
        k : 0.233919 .. 0.233919

    Block 310 cell size :
        i : 0.07925 .. 0.07925
        j : 0.02475 .. 0.02475
        k : 0.233155 .. 0.233155

    Block 311 cell size :
        i : 0.07925 .. 0.07925
        j : 0.0250052 .. 0.0250052
        k : 0.273056 .. 0.273056

    Block 312 cell size :
        i : 0.07925 .. 0.07925
        j : 0.0252499 .. 0.0252499
        k : 0.231889 .. 0.231889

    Block 313 cell size :
        i : 0.0760862 .. 0.0760862
        j : 0.0249894 .. 0.0249894
        k : 0.193342 .. 0.193342

    Block 314 cell size :
        i : 0.0356347 .. 0.0356347
        j : 0.0345039 .. 0.0345039
        k : 0.233155 .. 0.233155

    Block 315 cell size :
        i : 0.07925 .. 0.07925
        j : 0.02475 .. 0.02475
        k : 0.234062 .. 0.234062

    Block 316 cell size :
        i : 0.07925 .. 0.07925
        j : 0.0250052 .. 0.0250052
        k : 0.273963 .. 0.273963

    Block 317 cell size :
        i : 0.07925 .. 0.07925
        j : 0.0252499 .. 0.0252499
        k : 0.232797 .. 0.232797

    Block 318 cell size :
        i : 0.0760862 .. 0.0760862
        j : 0.0249894 .. 0.0249894
        k : 0.194249 .. 0.194249

    Block 319 cell size :
        i : 0.0356347 .. 0.0356347
        j : 0.034504 .. 0.034504
        k : 0.234062 .. 0.234062

    Block 320 cell size :
        i : 0.07925 .. 0.07925
        j : 0.02475 .. 0.02475
        k : 0.236622 .. 0.236622

    Block 321 cell size :
        i : 0.07925 .. 0.07925
        j : 0.0250052 .. 0.0250052
        k : 0.276524 .. 0.276524

    Block 322 cell size :
        i : 0.07925 .. 0.07925
        j : 0.0252499 .. 0.0252499
        k : 0.235357 .. 0.235357

    Block 323 cell size :
        i : 0.0760862 .. 0.0760862
        j : 0.0249894 .. 0.0249894
        k : 0.196807 .. 0.196807

    Block 324 cell size :
        i : 0.0356347 .. 0.0356347
        j : 0.034504 .. 0.034504
        k : 0.236622 .. 0.236622

    Block 325 cell size :
        i : 0.07925 .. 0.07925
        j : 0.02475 .. 0.02475
        k : 0.240782 .. 0.240782

    Block 326 cell size :
        i : 0.07925 .. 0.07925
        j : 0.0250052 .. 0.0250052
        k : 0.280686 .. 0.280686

    Block 327 cell size :
        i : 0.07925 .. 0.07925
        j : 0.0252499 .. 0.0252499
        k : 0.239517 .. 0.239517

    Block 328 cell size :
        i : 0.0760862 .. 0.0760862
        j : 0.0249894 .. 0.0249894
        k : 0.200962 .. 0.200962

    Block 329 cell size :
        i : 0.0356347 .. 0.0356347
        j : 0.034504 .. 0.034504
        k : 0.240782 .. 0.240782

    Block 330 cell size :
        i : 0.07925 .. 0.07925
        j : 0.02475 .. 0.02475
        k : 0.246461 .. 0.246461

    Block 331 cell size :
        i : 0.07925 .. 0.07925
        j : 0.0250052 .. 0.0250052
        k : 0.28637 .. 0.28637

    Block 332 cell size :
        i : 0.07925 .. 0.07925
        j : 0.0252499 .. 0.0252499
        k : 0.245195 .. 0.245195

    Block 333 cell size :
        i : 0.0760862 .. 0.0760862
        j : 0.0249894 .. 0.0249894
        k : 0.206633 .. 0.206633

    Block 334 cell size :
        i : 0.0356347 .. 0.0356347
        j : 0.034504 .. 0.034504
        k : 0.246461 .. 0.246461

    Block 335 cell size :
        i : 0.07925 .. 0.07925
        j : 0.02475 .. 0.02475
        k : 0.252631 .. 0.252631

    Block 336 cell size :
        i : 0.07925 .. 0.07925
        j : 0.0250052 .. 0.0250052
        k : 0.292544 .. 0.292544

    Block 337 cell size :
        i : 0.07925 .. 0.07925
        j : 0.0252499 .. 0.0252499
        k : 0.251365 .. 0.251365

    Block 338 cell size :
        i : 0.0760862 .. 0.0760862
        j : 0.0249894 .. 0.0249894
        k : 0.212795 .. 0.212795

    Block 339 cell size :
        i : 0.0356347 .. 0.0356347
        j : 0.0345039 .. 0.0345039
        k : 0.252631 .. 0.252631

    Block 340 cell size :
        i : 0.07925 .. 0.07925
        j : 0.02475 .. 0.02475
        k : 0.24857 .. 0.24857

    Block 341 cell size :
        i : 0.07925 .. 0.07925
        j : 0.0250052 .. 0.0250052
        k : 0.288479 .. 0.288479

    Block 342 cell size :
        i : 0.07925 .. 0.07925
        j : 0.0252499 .. 0.0252499
        k : 0.247304 .. 0.247304

    Block 343 cell size :
        i : 0.0760862 .. 0.0760862
        j : 0.0249894 .. 0.0249894
        k : 0.208739 .. 0.208739

    Block 344 cell size :
        i : 0.0356347 .. 0.0356347
        j : 0.034504 .. 0.034504
        k : 0.24857 .. 0.24857

    Block 345 cell size :
        i : 0.07925 .. 0.07925
        j : 0.02475 .. 0.02475
        k : 0.242426 .. 0.242426

    Block 346 cell size :
        i : 0.07925 .. 0.07925
        j : 0.0250052 .. 0.0250052
        k : 0.28233 .. 0.28233

    Block 347 cell size :
        i : 0.07925 .. 0.07925
        j : 0.0252499 .. 0.0252499
        k : 0.24116 .. 0.24116

    Block 348 cell size :
        i : 0.0760862 .. 0.0760862
        j : 0.0249894 .. 0.0249894
        k : 0.202605 .. 0.202605

    Block 349 cell size :
        i : 0.0356347 .. 0.0356347
        j : 0.034504 .. 0.034504
        k : 0.242426 .. 0.242426

    Block 350 cell size :
        i : 0.07925 .. 0.07925
        j : 0.02475 .. 0.02475
        k : 0.23777 .. 0.23777

    Block 351 cell size :
        i : 0.07925 .. 0.07925
        j : 0.0250052 .. 0.0250052
        k : 0.277671 .. 0.277671

    Block 352 cell size :
        i : 0.07925 .. 0.07925
        j : 0.0252499 .. 0.0252499
        k : 0.236505 .. 0.236505

    Block 353 cell size :
        i : 0.0760862 .. 0.0760862
        j : 0.0249894 .. 0.0249894
        k : 0.197955 .. 0.197955

    Block 354 cell size :
        i : 0.0356347 .. 0.0356347
        j : 0.034504 .. 0.034504
        k : 0.23777 .. 0.23777

    Block 355 cell size :
        i : 0.07925 .. 0.07925
        j : 0.02475 .. 0.02475
        k : 0.234691 .. 0.234691

    Block 356 cell size :
        i : 0.07925 .. 0.07925
        j : 0.0250052 .. 0.0250052
        k : 0.274589 .. 0.274589

    Block 357 cell size :
        i : 0.07925 .. 0.07925
        j : 0.0252499 .. 0.0252499
        k : 0.233425 .. 0.233425

    Block 358 cell size :
        i : 0.0760862 .. 0.0760862
        j : 0.0249894 .. 0.0249894
        k : 0.194879 .. 0.194879

    Block 359 cell size :
        i : 0.0356347 .. 0.0356347
        j : 0.034504 .. 0.034504
        k : 0.234691 .. 0.234691

    Block 360 cell size :
        i : 0.07925 .. 0.07925
        j : 0.02475 .. 0.02475
        k : 0.23325 .. 0.23325

    Block 361 cell size :
        i : 0.07925 .. 0.07925
        j : 0.0250052 .. 0.0250052
        k : 0.273148 .. 0.273148

    Block 362 cell size :
        i : 0.07925 .. 0.07925
        j : 0.0252499 .. 0.0252499
        k : 0.231985 .. 0.231985

    Block 363 cell size :
        i : 0.0760862 .. 0.0760862
        j : 0.0249894 .. 0.0249894
        k : 0.19344 .. 0.19344

    Block 364 cell size :
        i : 0.0356347 .. 0.0356347
        j : 0.034504 .. 0.034504
        k : 0.23325 .. 0.23325

    Block 365 cell size :
        i : 0.07925 .. 0.07925
        j : 0.02475 .. 0.02475
        k : 0.233479 .. 0.233479

    Block 366 cell size :
        i : 0.07925 .. 0.07925
        j : 0.0250052 .. 0.0250052
        k : 0.273377 .. 0.273377

    Block 367 cell size :
        i : 0.07925 .. 0.07925
        j : 0.0252499 .. 0.0252499
        k : 0.232213 .. 0.232213

    Block 368 cell size :
        i : 0.0760862 .. 0.0760862
        j : 0.0249894 .. 0.0249894
        k : 0.193668 .. 0.193668

    Block 369 cell size :
        i : 0.0356347 .. 0.0356347
        j : 0.034504 .. 0.034504
        k : 0.233479 .. 0.233479

    Block 370 cell size :
        i : 0.07925 .. 0.07925
        j : 0.02475 .. 0.02475
        k : 0.235371 .. 0.235371

    Block 371 cell size :
        i : 0.07925 .. 0.07925
        j : 0.0250052 .. 0.0250052
        k : 0.275271 .. 0.275271

    Block 372 cell size :
        i : 0.07925 .. 0.07925
        j : 0.0252499 .. 0.0252499
        k : 0.234106 .. 0.234106

    Block 373 cell size :
        i : 0.0760862 .. 0.0760862
        j : 0.0249894 .. 0.0249894
        k : 0.195559 .. 0.195559

    Block 374 cell size :
        i : 0.0356347 .. 0.0356347
        j : 0.034504 .. 0.034504
        k : 0.235371 .. 0.235371

    Block 375 cell size :
        i : 0.07925 .. 0.07925
        j : 0.02475 .. 0.02475
        k : 0.238889 .. 0.238889

    Block 376 cell size :
        i : 0.07925 .. 0.07925
        j : 0.0250052 .. 0.0250052
        k : 0.278791 .. 0.278791

    Block 377 cell size :
        i : 0.07925 .. 0.07925
        j : 0.0252499 .. 0.0252499
        k : 0.237623 .. 0.237623

    Block 378 cell size :
        i : 0.0760862 .. 0.0760862
        j : 0.0249894 .. 0.0249894
        k : 0.199072 .. 0.199072

    Block 379 cell size :
        i : 0.0356347 .. 0.0356347
        j : 0.034504 .. 0.034504
        k : 0.238889 .. 0.238889

    Block 380 cell size :
        i : 0.07925 .. 0.07925
        j : 0.02475 .. 0.02475
        k : 0.243961 .. 0.243961

    Block 381 cell size :
        i : 0.07925 .. 0.07925
        j : 0.0250052 .. 0.0250052
        k : 0.283867 .. 0.283867

    Block 382 cell size :
        i : 0.07925 .. 0.07925
        j : 0.0252499 .. 0.0252499
        k : 0.242695 .. 0.242695

    Block 383 cell size :
        i : 0.0760862 .. 0.0760862
        j : 0.0249894 .. 0.0249894
        k : 0.204136 .. 0.204136

    Block 384 cell size :
        i : 0.0356347 .. 0.0356347
        j : 0.0345039 .. 0.0345039
        k : 0.243961 .. 0.243961

    Block 385 cell size :
        i : 0.07925 .. 0.07925
        j : 0.02475 .. 0.02475
        k : 0.250492 .. 0.250492

    Block 386 cell size :
        i : 0.07925 .. 0.07925
        j : 0.0250052 .. 0.0250052
        k : 0.290405 .. 0.290405

    Block 387 cell size :
        i : 0.07925 .. 0.07925
        j : 0.0252499 .. 0.0252499
        k : 0.249226 .. 0.249226

    Block 388 cell size :
        i : 0.0760862 .. 0.0760862
        j : 0.0249894 .. 0.0249894
        k : 0.210658 .. 0.210658

    Block 389 cell size :
        i : 0.0356347 .. 0.0356347
        j : 0.034504 .. 0.034504
        k : 0.250492 .. 0.250492

    Block 390 cell size :
        i : 0.07925 .. 0.07925
        j : 0.02475 .. 0.02475
        k : 0.251453 .. 0.251453

    Block 391 cell size :
        i : 0.07925 .. 0.07925
        j : 0.0250052 .. 0.0250052
        k : 0.291366 .. 0.291366

    Block 392 cell size :
        i : 0.07925 .. 0.07925
        j : 0.0252499 .. 0.0252499
        k : 0.250187 .. 0.250187

    Block 393 cell size :
        i : 0.0760862 .. 0.0760862
        j : 0.0249894 .. 0.0249894
        k : 0.211617 .. 0.211617

    Block 394 cell size :
        i : 0.0356347 .. 0.0356347
        j : 0.034504 .. 0.034504
        k : 0.251453 .. 0.251453

    Block 395 cell size :
        i : 0.07925 .. 0.07925
        j : 0.02475 .. 0.02475
        k : 0.244767 .. 0.244767

    Block 396 cell size :
        i : 0.07925 .. 0.07925
        j : 0.0250052 .. 0.0250052
        k : 0.284675 .. 0.284675

    Block 397 cell size :
        i : 0.07925 .. 0.07925
        j : 0.0252499 .. 0.0252499
        k : 0.243501 .. 0.243501

    Block 398 cell size :
        i : 0.0760862 .. 0.0760862
        j : 0.0249894 .. 0.0249894
        k : 0.204941 .. 0.204941

    Block 399 cell size :
        i : 0.0356347 .. 0.0356347
        j : 0.034504 .. 0.034504
        k : 0.244767 .. 0.244767

    Block 400 cell size :
        i : 0.07925 .. 0.07925
        j : 0.02475 .. 0.02475
        k : 0.23949 .. 0.23949

    Block 401 cell size :
        i : 0.07925 .. 0.07925
        j : 0.0250052 .. 0.0250052
        k : 0.279393 .. 0.279393

    Block 402 cell size :
        i : 0.07925 .. 0.07925
        j : 0.0252499 .. 0.0252499
        k : 0.238225 .. 0.238225

    Block 403 cell size :
        i : 0.0760862 .. 0.0760862
        j : 0.0249894 .. 0.0249894
        k : 0.199672 .. 0.199672

    Block 404 cell size :
        i : 0.0356347 .. 0.0356347
        j : 0.034504 .. 0.034504
        k : 0.23949 .. 0.23949

    Block 405 cell size :
        i : 0.07925 .. 0.07925
        j : 0.02475 .. 0.02475
        k : 0.235756 .. 0.235756

    Block 406 cell size :
        i : 0.07925 .. 0.07925
        j : 0.0250052 .. 0.0250052
        k : 0.275656 .. 0.275656

    Block 407 cell size :
        i : 0.07925 .. 0.07925
        j : 0.0252499 .. 0.0252499
        k : 0.234491 .. 0.234491

    Block 408 cell size :
        i : 0.0760862 .. 0.0760862
        j : 0.0249894 .. 0.0249894
        k : 0.195943 .. 0.195943

    Block 409 cell size :
        i : 0.0356347 .. 0.0356347
        j : 0.034504 .. 0.034504
        k : 0.235756 .. 0.235756

    Block 410 cell size :
        i : 0.07925 .. 0.07925
        j : 0.02475 .. 0.02475
        k : 0.233639 .. 0.233639

    Block 411 cell size :
        i : 0.07925 .. 0.07925
        j : 0.0250052 .. 0.0250052
        k : 0.273538 .. 0.273538

    Block 412 cell size :
        i : 0.07925 .. 0.07925
        j : 0.0252499 .. 0.0252499
        k : 0.232374 .. 0.232374

    Block 413 cell size :
        i : 0.0760862 .. 0.0760862
        j : 0.0249894 .. 0.0249894
        k : 0.193828 .. 0.193828

    Block 414 cell size :
        i : 0.0356347 .. 0.0356347
        j : 0.034504 .. 0.034504
        k : 0.233639 .. 0.233639

    Block 415 cell size :
        i : 0.07925 .. 0.07925
        j : 0.02475 .. 0.02475
        k : 0.233183 .. 0.233183

    Block 416 cell size :
        i : 0.07925 .. 0.07925
        j : 0.0250052 .. 0.0250052
        k : 0.273081 .. 0.273081

    Block 417 cell size :
        i : 0.07925 .. 0.07925
        j : 0.0252499 .. 0.0252499
        k : 0.231918 .. 0.231918

    Block 418 cell size :
        i : 0.0760862 .. 0.0760862
        j : 0.0249894 .. 0.0249894
        k : 0.193372 .. 0.193372

    Block 419 cell size :
        i : 0.0356347 .. 0.0356347
        j : 0.034504 .. 0.034504
        k : 0.233183 .. 0.233183

    Block 420 cell size :
        i : 0.07925 .. 0.07925
        j : 0.02475 .. 0.02475
        k : 0.234397 .. 0.234397

    Block 421 cell size :
        i : 0.07925 .. 0.07925
        j : 0.0250052 .. 0.0250052
        k : 0.274297 .. 0.274297

    Block 422 cell size :
        i : 0.07925 .. 0.07925
        j : 0.0252499 .. 0.0252499
        k : 0.233132 .. 0.233132

    Block 423 cell size :
        i : 0.0760862 .. 0.0760862
        j : 0.0249894 .. 0.0249894
        k : 0.194586 .. 0.194586

    Block 424 cell size :
        i : 0.0356347 .. 0.0356347
        j : 0.034504 .. 0.034504
        k : 0.234397 .. 0.234397

    Block 425 cell size :
        i : 0.07925 .. 0.07925
        j : 0.02475 .. 0.02475
        k : 0.237257 .. 0.237257

    Block 426 cell size :
        i : 0.07925 .. 0.07925
        j : 0.0250052 .. 0.0250052
        k : 0.277158 .. 0.277158

    Block 427 cell size :
        i : 0.07925 .. 0.07925
        j : 0.0252499 .. 0.0252499
        k : 0.235992 .. 0.235992

    Block 428 cell size :
        i : 0.0760862 .. 0.0760862
        j : 0.0249894 .. 0.0249894
        k : 0.197442 .. 0.197442

    Block 429 cell size :
        i : 0.0356347 .. 0.0356347
        j : 0.034504 .. 0.034504
        k : 0.237257 .. 0.237257

    Block 430 cell size :
        i : 0.07925 .. 0.07925
        j : 0.02475 .. 0.02475
        k : 0.241703 .. 0.241703

    Block 431 cell size :
        i : 0.07925 .. 0.07925
        j : 0.0250052 .. 0.0250052
        k : 0.281608 .. 0.281608

    Block 432 cell size :
        i : 0.07925 .. 0.07925
        j : 0.0252499 .. 0.0252499
        k : 0.240438 .. 0.240438

    Block 433 cell size :
        i : 0.0760862 .. 0.0760862
        j : 0.0249894 .. 0.0249894
        k : 0.201882 .. 0.201882

    Block 434 cell size :
        i : 0.0356347 .. 0.0356347
        j : 0.034504 .. 0.034504
        k : 0.241703 .. 0.241703

    Block 435 cell size :
        i : 0.07925 .. 0.07925
        j : 0.02475 .. 0.02475
        k : 0.247651 .. 0.247651

    Block 436 cell size :
        i : 0.07925 .. 0.07925
        j : 0.0250052 .. 0.0250052
        k : 0.287561 .. 0.287561

    Block 437 cell size :
        i : 0.07925 .. 0.07925
        j : 0.0252499 .. 0.0252499
        k : 0.246385 .. 0.246385

    Block 438 cell size :
        i : 0.0760862 .. 0.0760862
        j : 0.0249894 .. 0.0249894
        k : 0.207821 .. 0.207821

    Block 439 cell size :
        i : 0.0356347 .. 0.0356347
        j : 0.034504 .. 0.034504
        k : 0.247651 .. 0.247651

    Block 440 cell size :
        i : 0.07925 .. 0.07925
        j : 0.02475 .. 0.02475
        k : 0.252816 .. 0.252816

    Block 441 cell size :
        i : 0.07925 .. 0.07925
        j : 0.0250052 .. 0.0250052
        k : 0.29273 .. 0.29273

    Block 442 cell size :
        i : 0.07925 .. 0.07925
        j : 0.0252499 .. 0.0252499
        k : 0.251549 .. 0.251549

    Block 443 cell size :
        i : 0.0760862 .. 0.0760862
        j : 0.0249894 .. 0.0249894
        k : 0.212978 .. 0.212978

    Block 444 cell size :
        i : 0.0356347 .. 0.0356347
        j : 0.034504 .. 0.034504
        k : 0.252816 .. 0.252816

    Block 445 cell size :
        i : 0.07925 .. 0.07925
        j : 0.02475 .. 0.02475
        k : 0.247349 .. 0.247349

    Block 446 cell size :
        i : 0.07925 .. 0.07925
        j : 0.0250052 .. 0.0250052
        k : 0.287259 .. 0.287259

    Block 447 cell size :
        i : 0.07925 .. 0.07925
        j : 0.0252499 .. 0.0252499
        k : 0.246084 .. 0.246084

    Block 448 cell size :
        i : 0.0760862 .. 0.0760862
        j : 0.0249894 .. 0.0249894
        k : 0.20752 .. 0.20752

    Block 449 cell size :
        i : 0.0356347 .. 0.0356347
        j : 0.034504 .. 0.034504
        k : 0.247349 .. 0.247349

    Block 450 cell size :
        i : 0.07925 .. 0.07925
        j : 0.02475 .. 0.02475
        k : 0.241468 .. 0.241468

    Block 451 cell size :
        i : 0.07925 .. 0.07925
        j : 0.0250052 .. 0.0250052
        k : 0.281372 .. 0.281372

    Block 452 cell size :
        i : 0.07925 .. 0.07925
        j : 0.0252499 .. 0.0252499
        k : 0.240202 .. 0.240202

    Block 453 cell size :
        i : 0.0760862 .. 0.0760862
        j : 0.0249894 .. 0.0249894
        k : 0.201647 .. 0.201647

    Block 454 cell size :
        i : 0.0356347 .. 0.0356347
        j : 0.034504 .. 0.034504
        k : 0.241468 .. 0.241468

    Block 455 cell size :
        i : 0.07925 .. 0.07925
        j : 0.02475 .. 0.02475
        k : 0.237092 .. 0.237092

    Block 456 cell size :
        i : 0.07925 .. 0.07925
        j : 0.0250052 .. 0.0250052
        k : 0.276993 .. 0.276993

    Block 457 cell size :
        i : 0.07925 .. 0.07925
        j : 0.0252499 .. 0.0252499
        k : 0.235827 .. 0.235827

    Block 458 cell size :
        i : 0.0760862 .. 0.0760862
        j : 0.0249894 .. 0.0249894
        k : 0.197278 .. 0.197278

    Block 459 cell size :
        i : 0.0356347 .. 0.0356347
        j : 0.034504 .. 0.034504
        k : 0.237092 .. 0.237092

    Block 460 cell size :
        i : 0.07925 .. 0.07925
        j : 0.02475 .. 0.02475
        k : 0.234307 .. 0.234307

    Block 461 cell size :
        i : 0.07925 .. 0.07925
        j : 0.0250052 .. 0.0250052
        k : 0.274206 .. 0.274206

    Block 462 cell size :
        i : 0.07925 .. 0.07925
        j : 0.0252499 .. 0.0252499
        k : 0.233041 .. 0.233041

    Block 463 cell size :
        i : 0.0760862 .. 0.0760862
        j : 0.0249894 .. 0.0249894
        k : 0.194495 .. 0.194495

    Block 464 cell size :
        i : 0.0356347 .. 0.0356347
        j : 0.034504 .. 0.034504
        k : 0.234307 .. 0.234307

    Block 465 cell size :
        i : 0.07925 .. 0.07925
        j : 0.02475 .. 0.02475
        k : 0.233168 .. 0.233168

    Block 466 cell size :
        i : 0.07925 .. 0.07925
        j : 0.0250052 .. 0.0250052
        k : 0.273066 .. 0.273066

    Block 467 cell size :
        i : 0.07925 .. 0.07925
        j : 0.0252499 .. 0.0252499
        k : 0.231902 .. 0.231902

    Block 468 cell size :
        i : 0.0760862 .. 0.0760862
        j : 0.0249894 .. 0.0249894
        k : 0.193357 .. 0.193357

    Block 469 cell size :
        i : 0.0356347 .. 0.0356347
        j : 0.034504 .. 0.034504
        k : 0.233168 .. 0.233168

    Block 470 cell size :
        i : 0.07925 .. 0.07925
        j : 0.02475 .. 0.02475
        k : 0.2337 .. 0.2337

    Block 471 cell size :
        i : 0.07925 .. 0.07925
        j : 0.0250052 .. 0.0250052
        k : 0.273599 .. 0.273599

    Block 472 cell size :
        i : 0.07925 .. 0.07925
        j : 0.0252499 .. 0.0252499
        k : 0.232434 .. 0.232434

    Block 473 cell size :
        i : 0.0760862 .. 0.0760862
        j : 0.0249894 .. 0.0249894
        k : 0.193889 .. 0.193889

    Block 474 cell size :
        i : 0.0356347 .. 0.0356347
        j : 0.034504 .. 0.034504
        k : 0.2337 .. 0.2337

    Block 475 cell size :
        i : 0.07925 .. 0.07925
        j : 0.02475 .. 0.02475
        k : 0.235892 .. 0.235892

    Block 476 cell size :
        i : 0.07925 .. 0.07925
        j : 0.0250052 .. 0.0250052
        k : 0.275792 .. 0.275792

    Block 477 cell size :
        i : 0.07925 .. 0.07925
        j : 0.0252499 .. 0.0252499
        k : 0.234626 .. 0.234626

    Block 478 cell size :
        i : 0.0760862 .. 0.0760862
        j : 0.0249894 .. 0.0249894
        k : 0.196078 .. 0.196078

    Block 479 cell size :
        i : 0.0356347 .. 0.0356347
        j : 0.034504 .. 0.034504
        k : 0.235892 .. 0.235892

    Block 480 cell size :
        i : 0.07925 .. 0.07925
        j : 0.02475 .. 0.02475
        k : 0.239698 .. 0.239698

    Block 481 cell size :
        i : 0.07925 .. 0.07925
        j : 0.0250052 .. 0.0250052
        k : 0.2796 .. 0.2796

    Block 482 cell size :
        i : 0.07925 .. 0.07925
        j : 0.0252499 .. 0.0252499
        k : 0.238432 .. 0.238432

    Block 483 cell size :
        i : 0.0760862 .. 0.0760862
        j : 0.0249894 .. 0.0249894
        k : 0.199879 .. 0.199879

    Block 484 cell size :
        i : 0.0356347 .. 0.0356347
        j : 0.034504 .. 0.034504
        k : 0.239698 .. 0.239698

    Block 485 cell size :
        i : 0.07925 .. 0.07925
        j : 0.02475 .. 0.02475
        k : 0.245043 .. 0.245043

    Block 486 cell size :
        i : 0.07925 .. 0.07925
        j : 0.0250052 .. 0.0250052
        k : 0.28495 .. 0.28495

    Block 487 cell size :
        i : 0.07925 .. 0.07925
        j : 0.0252499 .. 0.0252499
        k : 0.243777 .. 0.243777

    Block 488 cell size :
        i : 0.0760862 .. 0.0760862
        j : 0.0249894 .. 0.0249894
        k : 0.205217 .. 0.205217

    Block 489 cell size :
        i : 0.0356347 .. 0.0356347
        j : 0.034504 .. 0.034504
        k : 0.245043 .. 0.245043

    Block 490 cell size :
        i : 0.07925 .. 0.07925
        j : 0.02475 .. 0.02475
        k : 0.251726 .. 0.251726

    Block 491 cell size :
        i : 0.07925 .. 0.07925
        j : 0.0250052 .. 0.0250052
        k : 0.291639 .. 0.291639

    Block 492 cell size :
        i : 0.07925 .. 0.07925
        j : 0.0252499 .. 0.0252499
        k : 0.25046 .. 0.25046

    Block 493 cell size :
        i : 0.0760862 .. 0.0760862
        j : 0.0249894 .. 0.0249894
        k : 0.21189 .. 0.21189

    Block 494 cell size :
        i : 0.0356347 .. 0.0356347
        j : 0.034504 .. 0.034504
        k : 0.251726 .. 0.251726

    Block 495 cell size :
        i : 0.07925 .. 0.07925
        j : 0.02475 .. 0.02475
        k : 0.250165 .. 0.250165

    Block 496 cell size :
        i : 0.07925 .. 0.07925
        j : 0.0250052 .. 0.0250052
        k : 0.290078 .. 0.290078

    Block 497 cell size :
        i : 0.07925 .. 0.07925
        j : 0.0252499 .. 0.0252499
        k : 0.248899 .. 0.248899

    Block 498 cell size :
        i : 0.0760862 .. 0.0760862
        j : 0.0249894 .. 0.0249894
        k : 0.210332 .. 0.210332

    Block 499 cell size :
        i : 0.0356347 .. 0.0356347
        j : 0.034504 .. 0.034504
        k : 0.250165 .. 0.250165

    Block 500 cell size :
        i : 0.07925 .. 0.07925
        j : 0.02475 .. 0.02475
        k : 0.243697 .. 0.243697

    Block 501 cell size :
        i : 0.07925 .. 0.07925
        j : 0.0250052 .. 0.0250052
        k : 0.283604 .. 0.283604

    Block 502 cell size :
        i : 0.07925 .. 0.07925
        j : 0.0252499 .. 0.0252499
        k : 0.242432 .. 0.242432

    Block 503 cell size :
        i : 0.0760862 .. 0.0760862
        j : 0.0249894 .. 0.0249894
        k : 0.203873 .. 0.203873

    Block 504 cell size :
        i : 0.0356347 .. 0.0356347
        j : 0.034504 .. 0.034504
        k : 0.243697 .. 0.243697

    Block 505 cell size :
        i : 0.07925 .. 0.07925
        j : 0.02475 .. 0.02475
        k : 0.238694 .. 0.238694

    Block 506 cell size :
        i : 0.07925 .. 0.07925
        j : 0.0250052 .. 0.0250052
        k : 0.278596 .. 0.278596

    Block 507 cell size :
        i : 0.07925 .. 0.07925
        j : 0.0252499 .. 0.0252499
        k : 0.237429 .. 0.237429

    Block 508 cell size :
        i : 0.0760862 .. 0.0760862
        j : 0.0249894 .. 0.0249894
        k : 0.198878 .. 0.198878

    Block 509 cell size :
        i : 0.0356347 .. 0.0356347
        j : 0.034504 .. 0.034504
        k : 0.238694 .. 0.238694

    Block 510 cell size :
        i : 0.07925 .. 0.07925
        j : 0.02475 .. 0.02475
        k : 0.23525 .. 0.23525

    Block 511 cell size :
        i : 0.07925 .. 0.07925
        j : 0.0250052 .. 0.0250052
        k : 0.275149 .. 0.275149

    Block 512 cell size :
        i : 0.07925 .. 0.07925
        j : 0.0252499 .. 0.0252499
        k : 0.233984 .. 0.233984

    Block 513 cell size :
        i : 0.0760862 .. 0.0760862
        j : 0.0249894 .. 0.0249894
        k : 0.195437 .. 0.195437

    Block 514 cell size :
        i : 0.0356347 .. 0.0356347
        j : 0.034504 .. 0.034504
        k : 0.23525 .. 0.23525

    Block 515 cell size :
        i : 0.07925 .. 0.07925
        j : 0.02475 .. 0.02475
        k : 0.233432 .. 0.233432

    Block 516 cell size :
        i : 0.07925 .. 0.07925
        j : 0.0250052 .. 0.0250052
        k : 0.273331 .. 0.273331

    Block 517 cell size :
        i : 0.07925 .. 0.07925
        j : 0.0252499 .. 0.0252499
        k : 0.232167 .. 0.232167

    Block 518 cell size :
        i : 0.0760862 .. 0.0760862
        j : 0.0249894 .. 0.0249894
        k : 0.193621 .. 0.193621

    Block 519 cell size :
        i : 0.0356347 .. 0.0356347
        j : 0.034504 .. 0.034504
        k : 0.233432 .. 0.233432

    Block 520 cell size :
        i : 0.07925 .. 0.07925
        j : 0.02475 .. 0.02475
        k : 0.23328 .. 0.23328

    Block 521 cell size :
        i : 0.07925 .. 0.07925
        j : 0.0250052 .. 0.0250052
        k : 0.273179 .. 0.273179

    Block 522 cell size :
        i : 0.07925 .. 0.07925
        j : 0.0252499 .. 0.0252499
        k : 0.232015 .. 0.232015

    Block 523 cell size :
        i : 0.0760862 .. 0.0760862
        j : 0.0249894 .. 0.0249894
        k : 0.193469 .. 0.193469

    Block 524 cell size :
        i : 0.0356347 .. 0.0356347
        j : 0.034504 .. 0.034504
        k : 0.23328 .. 0.23328

    Block 525 cell size :
        i : 0.07925 .. 0.07925
        j : 0.02475 .. 0.02475
        k : 0.234797 .. 0.234797

    Block 526 cell size :
        i : 0.07925 .. 0.07925
        j : 0.0250052 .. 0.0250052
        k : 0.274696 .. 0.274696

    Block 527 cell size :
        i : 0.07925 .. 0.07925
        j : 0.0252499 .. 0.0252499
        k : 0.233531 .. 0.233531

    Block 528 cell size :
        i : 0.0760862 .. 0.0760862
        j : 0.0249894 .. 0.0249894
        k : 0.194984 .. 0.194984

    Block 529 cell size :
        i : 0.0356347 .. 0.0356347
        j : 0.0345039 .. 0.0345039
        k : 0.234797 .. 0.234797

    Block 530 cell size :
        i : 0.07925 .. 0.07925
        j : 0.02475 .. 0.02475
        k : 0.23795 .. 0.23795

    Block 531 cell size :
        i : 0.07925 .. 0.07925
        j : 0.0250052 .. 0.0250052
        k : 0.277851 .. 0.277851

    Block 532 cell size :
        i : 0.07925 .. 0.07925
        j : 0.0252499 .. 0.0252499
        k : 0.236684 .. 0.236684

    Block 533 cell size :
        i : 0.0760862 .. 0.0760862
        j : 0.0249894 .. 0.0249894
        k : 0.198134 .. 0.198134

    Block 534 cell size :
        i : 0.0356347 .. 0.0356347
        j : 0.0345039 .. 0.0345039
        k : 0.23795 .. 0.23795

    Block 535 cell size :
        i : 0.07925 .. 0.07925
        j : 0.02475 .. 0.02475
        k : 0.242676 .. 0.242676

    Block 536 cell size :
        i : 0.07925 .. 0.07925
        j : 0.0250052 .. 0.0250052
        k : 0.282581 .. 0.282581

    Block 537 cell size :
        i : 0.07925 .. 0.07925
        j : 0.0252499 .. 0.0252499
        k : 0.24141 .. 0.24141

    Block 538 cell size :
        i : 0.0760862 .. 0.0760862
        j : 0.0249894 .. 0.0249894
        k : 0.202853 .. 0.202853

    Block 539 cell size :
        i : 0.0356347 .. 0.0356347
        j : 0.034504 .. 0.034504
        k : 0.242676 .. 0.242676

    Block 540 cell size :
        i : 0.07925 .. 0.07925
        j : 0.02475 .. 0.02475
        k : 0.248885 .. 0.248885

    Block 541 cell size :
        i : 0.07925 .. 0.07925
        j : 0.0250052 .. 0.0250052
        k : 0.288796 .. 0.288796

    Block 542 cell size :
        i : 0.07925 .. 0.07925
        j : 0.0252499 .. 0.0252499
        k : 0.247619 .. 0.247619

    Block 543 cell size :
        i : 0.0760862 .. 0.0760862
        j : 0.0249894 .. 0.0249894
        k : 0.209054 .. 0.209054

    Block 544 cell size :
        i : 0.0356347 .. 0.0356347
        j : 0.034504 .. 0.034504
        k : 0.248885 .. 0.248885

    Block 545 cell size :
        i : 0.07925 .. 0.07925
        j : 0.02475 .. 0.02475
        k : 0.252513 .. 0.252513

    Block 546 cell size :
        i : 0.07925 .. 0.07925
        j : 0.0250052 .. 0.0250052
        k : 0.292427 .. 0.292427

    Block 547 cell size :
        i : 0.07925 .. 0.07925
        j : 0.0252499 .. 0.0252499
        k : 0.251247 .. 0.251247

    Block 548 cell size :
        i : 0.0760862 .. 0.0760862
        j : 0.0249894 .. 0.0249894
        k : 0.212676 .. 0.212676

    Block 549 cell size :
        i : 0.0356347 .. 0.0356347
        j : 0.034504 .. 0.034504
        k : 0.252513 .. 0.252513

    Block 550 cell size :
        i : 0.07925 .. 0.07925
        j : 0.02475 .. 0.02475
        k : 0.246172 .. 0.246172

    Block 551 cell size :
        i : 0.07925 .. 0.07925
        j : 0.0250052 .. 0.0250052
        k : 0.286081 .. 0.286081

    Block 552 cell size :
        i : 0.07925 .. 0.07925
        j : 0.0252499 .. 0.0252499
        k : 0.244907 .. 0.244907

    Block 553 cell size :
        i : 0.0760862 .. 0.0760862
        j : 0.0249894 .. 0.0249894
        k : 0.206345 .. 0.206345

    Block 554 cell size :
        i : 0.0356347 .. 0.0356347
        j : 0.034504 .. 0.034504
        k : 0.246172 .. 0.246172

    Block 555 cell size :
        i : 0.07925 .. 0.07925
        j : 0.02475 .. 0.02475
        k : 0.240558 .. 0.240558

    Block 556 cell size :
        i : 0.07925 .. 0.07925
        j : 0.0250052 .. 0.0250052
        k : 0.280461 .. 0.280461

    Block 557 cell size :
        i : 0.07925 .. 0.07925
        j : 0.0252499 .. 0.0252499
        k : 0.239292 .. 0.239292

    Block 558 cell size :
        i : 0.0760862 .. 0.0760862
        j : 0.0249894 .. 0.0249894
        k : 0.200738 .. 0.200738

    Block 559 cell size :
        i : 0.0356347 .. 0.0356347
        j : 0.034504 .. 0.034504
        k : 0.240558 .. 0.240558

    Block 560 cell size :
        i : 0.07925 .. 0.07925
        j : 0.02475 .. 0.02475
        k : 0.236465 .. 0.236465

    Block 561 cell size :
        i : 0.07925 .. 0.07925
        j : 0.0250052 .. 0.0250052
        k : 0.276366 .. 0.276366

    Block 562 cell size :
        i : 0.07925 .. 0.07925
        j : 0.0252499 .. 0.0252499
        k : 0.2352 .. 0.2352

    Block 563 cell size :
        i : 0.0760862 .. 0.0760862
        j : 0.0249894 .. 0.0249894
        k : 0.196651 .. 0.196651

    Block 564 cell size :
        i : 0.0356347 .. 0.0356347
        j : 0.034504 .. 0.034504
        k : 0.236465 .. 0.236465

    Block 565 cell size :
        i : 0.07925 .. 0.07925
        j : 0.02475 .. 0.02475
        k : 0.233976 .. 0.233976

    Block 566 cell size :
        i : 0.07925 .. 0.07925
        j : 0.0250052 .. 0.0250052
        k : 0.273875 .. 0.273875

    Block 567 cell size :
        i : 0.07925 .. 0.07925
        j : 0.0252499 .. 0.0252499
        k : 0.23271 .. 0.23271

    Block 568 cell size :
        i : 0.0760862 .. 0.0760862
        j : 0.0249894 .. 0.0249894
        k : 0.194164 .. 0.194164

    Block 569 cell size :
        i : 0.0356347 .. 0.0356347
        j : 0.034504 .. 0.034504
        k : 0.233976 .. 0.233976

    Block 570 cell size :
        i : 0.07925 .. 0.07925
        j : 0.02475 .. 0.02475
        k : 0.23314 .. 0.23314

    Block 571 cell size :
        i : 0.07925 .. 0.07925
        j : 0.0250052 .. 0.0250052
        k : 0.273038 .. 0.273038

    Block 572 cell size :
        i : 0.07925 .. 0.07925
        j : 0.0252499 .. 0.0252499
        k : 0.231875 .. 0.231875

    Block 573 cell size :
        i : 0.0760862 .. 0.0760862
        j : 0.0249894 .. 0.0249894
        k : 0.193329 .. 0.193329

    Block 574 cell size :
        i : 0.0356347 .. 0.0356347
        j : 0.034504 .. 0.034504
        k : 0.23314 .. 0.23314

    Block 575 cell size :
        i : 0.07925 .. 0.07925
        j : 0.02475 .. 0.02475
        k : 0.233976 .. 0.233976

    Block 576 cell size :
        i : 0.07925 .. 0.07925
        j : 0.0250052 .. 0.0250052
        k : 0.273875 .. 0.273875

    Block 577 cell size :
        i : 0.07925 .. 0.07925
        j : 0.0252499 .. 0.0252499
        k : 0.23271 .. 0.23271

    Block 578 cell size :
        i : 0.0760862 .. 0.0760862
        j : 0.0249894 .. 0.0249894
        k : 0.194164 .. 0.194164

    Block 579 cell size :
        i : 0.0356347 .. 0.0356347
        j : 0.034504 .. 0.034504
        k : 0.233976 .. 0.233976

    Block 580 cell size :
        i : 0.07925 .. 0.07925
        j : 0.02475 .. 0.02475
        k : 0.236465 .. 0.236465

    Block 581 cell size :
        i : 0.07925 .. 0.07925
        j : 0.0250052 .. 0.0250052
        k : 0.276366 .. 0.276366

    Block 582 cell size :
        i : 0.07925 .. 0.07925
        j : 0.0252499 .. 0.0252499
        k : 0.2352 .. 0.2352

    Block 583 cell size :
        i : 0.0760862 .. 0.0760862
        j : 0.0249894 .. 0.0249894
        k : 0.196651 .. 0.196651

    Block 584 cell size :
        i : 0.0356347 .. 0.0356347
        j : 0.034504 .. 0.034504
        k : 0.236465 .. 0.236465

    Block 585 cell size :
        i : 0.07925 .. 0.07925
        j : 0.02475 .. 0.02475
        k : 0.240558 .. 0.240558

    Block 586 cell size :
        i : 0.07925 .. 0.07925
        j : 0.0250052 .. 0.0250052
        k : 0.280461 .. 0.280461

    Block 587 cell size :
        i : 0.07925 .. 0.07925
        j : 0.0252499 .. 0.0252499
        k : 0.239292 .. 0.239292

    Block 588 cell size :
        i : 0.0760862 .. 0.0760862
        j : 0.0249894 .. 0.0249894
        k : 0.200738 .. 0.200738

    Block 589 cell size :
        i : 0.0356347 .. 0.0356347
        j : 0.034504 .. 0.034504
        k : 0.240558 .. 0.240558

    Block 590 cell size :
        i : 0.07925 .. 0.07925
        j : 0.02475 .. 0.02475
        k : 0.246172 .. 0.246172

    Block 591 cell size :
        i : 0.07925 .. 0.07925
        j : 0.0250052 .. 0.0250052
        k : 0.286081 .. 0.286081

    Block 592 cell size :
        i : 0.07925 .. 0.07925
        j : 0.0252499 .. 0.0252499
        k : 0.244907 .. 0.244907

    Block 593 cell size :
        i : 0.0760862 .. 0.0760862
        j : 0.0249894 .. 0.0249894
        k : 0.206345 .. 0.206345

    Block 594 cell size :
        i : 0.0356347 .. 0.0356347
        j : 0.034504 .. 0.034504
        k : 0.246172 .. 0.246172

    Block 595 cell size :
        i : 0.07925 .. 0.07925
        j : 0.02475 .. 0.02475
        k : 0.252513 .. 0.252513

    Block 596 cell size :
        i : 0.07925 .. 0.07925
        j : 0.0250052 .. 0.0250052
        k : 0.292427 .. 0.292427

    Block 597 cell size :
        i : 0.07925 .. 0.07925
        j : 0.0252499 .. 0.0252499
        k : 0.251247 .. 0.251247

    Block 598 cell size :
        i : 0.0760862 .. 0.0760862
        j : 0.0249894 .. 0.0249894
        k : 0.212676 .. 0.212676

    Block 599 cell size :
        i : 0.0356347 .. 0.0356347
        j : 0.034504 .. 0.034504
        k : 0.252513 .. 0.252513

    Block 600 cell size :
        i : 0.07925 .. 0.07925
        j : 0.02475 .. 0.02475
        k : 0.248885 .. 0.248885

    Block 601 cell size :
        i : 0.07925 .. 0.07925
        j : 0.0250052 .. 0.0250052
        k : 0.288796 .. 0.288796

    Block 602 cell size :
        i : 0.07925 .. 0.07925
        j : 0.0252499 .. 0.0252499
        k : 0.247619 .. 0.247619

    Block 603 cell size :
        i : 0.0760862 .. 0.0760862
        j : 0.0249894 .. 0.0249894
        k : 0.209054 .. 0.209054

    Block 604 cell size :
        i : 0.0356347 .. 0.0356347
        j : 0.034504 .. 0.034504
        k : 0.248885 .. 0.248885

    Block 605 cell size :
        i : 0.07925 .. 0.07925
        j : 0.02475 .. 0.02475
        k : 0.242676 .. 0.242676

    Block 606 cell size :
        i : 0.07925 .. 0.07925
        j : 0.0250052 .. 0.0250052
        k : 0.282581 .. 0.282581

    Block 607 cell size :
        i : 0.07925 .. 0.07925
        j : 0.0252499 .. 0.0252499
        k : 0.24141 .. 0.24141

    Block 608 cell size :
        i : 0.0760862 .. 0.0760862
        j : 0.0249894 .. 0.0249894
        k : 0.202853 .. 0.202853

    Block 609 cell size :
        i : 0.0356347 .. 0.0356347
        j : 0.034504 .. 0.034504
        k : 0.242676 .. 0.242676

    Block 610 cell size :
        i : 0.07925 .. 0.07925
        j : 0.02475 .. 0.02475
        k : 0.23795 .. 0.23795

    Block 611 cell size :
        i : 0.07925 .. 0.07925
        j : 0.0250052 .. 0.0250052
        k : 0.277851 .. 0.277851

    Block 612 cell size :
        i : 0.07925 .. 0.07925
        j : 0.0252499 .. 0.0252499
        k : 0.236684 .. 0.236684

    Block 613 cell size :
        i : 0.0760862 .. 0.0760862
        j : 0.0249894 .. 0.0249894
        k : 0.198134 .. 0.198134

    Block 614 cell size :
        i : 0.0356347 .. 0.0356347
        j : 0.034504 .. 0.034504
        k : 0.23795 .. 0.23795

    Block 615 cell size :
        i : 0.07925 .. 0.07925
        j : 0.02475 .. 0.02475
        k : 0.234797 .. 0.234797

    Block 616 cell size :
        i : 0.07925 .. 0.07925
        j : 0.0250052 .. 0.0250052
        k : 0.274696 .. 0.274696

    Block 617 cell size :
        i : 0.07925 .. 0.07925
        j : 0.0252499 .. 0.0252499
        k : 0.233531 .. 0.233531

    Block 618 cell size :
        i : 0.0760862 .. 0.0760862
        j : 0.0249894 .. 0.0249894
        k : 0.194984 .. 0.194984

    Block 619 cell size :
        i : 0.0356347 .. 0.0356347
        j : 0.034504 .. 0.034504
        k : 0.234797 .. 0.234797

    Block 620 cell size :
        i : 0.07925 .. 0.07925
        j : 0.02475 .. 0.02475
[...]
        j : 0.0250052 .. 0.0250052
        k : 0.274275 .. 0.274275

    Block 992 cell size :
        i : 0.07925 .. 0.07925
        j : 0.0252499 .. 0.0252499
        k : 0.233714 .. 0.233714

    Block 993 cell size :
        i : 0.0760862 .. 0.0760862
        j : 0.0249894 .. 0.0249894
        k : 0.195733 .. 0.195733

    Block 994 cell size :
        i : 0.0356347 .. 0.0356347
        j : 0.0345039 .. 0.0345039
        k : 0.234961 .. 0.234961

    Block 995 cell size :
        i : 0.07925 .. 0.07925
        j : 0.02475 .. 0.02475
        k : 0.237693 .. 0.237693

    Block 996 cell size :
        i : 0.07925 .. 0.07925
        j : 0.0250052 .. 0.0250052
        k : 0.276871 .. 0.276871

    Block 997 cell size :
        i : 0.07925 .. 0.07925
        j : 0.0252499 .. 0.0252499
        k : 0.23645 .. 0.23645

    Block 998 cell size :
        i : 0.0760862 .. 0.0760862
        j : 0.0249894 .. 0.0249894
        k : 0.1986 .. 0.1986

    Block 999 cell size :
        i : 0.0356347 .. 0.0356347
        j : 0.034504 .. 0.034504
        k : 0.237693 .. 0.237693

    Block 1000 cell size :
        i : 0.07925 .. 0.07925
        j : 0.02475 .. 0.02475
        k : 0.242153 .. 0.242153

    Block 1001 cell size :
        i : 0.07925 .. 0.07925
        j : 0.0250052 .. 0.0250052
        k : 0.281198 .. 0.281198

    Block 1002 cell size :
        i : 0.07925 .. 0.07925
        j : 0.0252499 .. 0.0252499
        k : 0.240915 .. 0.240915

    Block 1003 cell size :
        i : 0.0760862 .. 0.0760862
        j : 0.0249894 .. 0.0249894
        k : 0.203194 .. 0.203194

    Block 1004 cell size :
        i : 0.0356347 .. 0.0356347
        j : 0.0345039 .. 0.0345039
        k : 0.242153 .. 0.242153

    Block 1005 cell size :
        i : 0.07925 .. 0.07925
        j : 0.02475 .. 0.02475
        k : 0.248251 .. 0.248251

    Block 1006 cell size :
        i : 0.07925 .. 0.07925
        j : 0.0250052 .. 0.0250052
        k : 0.287166 .. 0.287166

    Block 1007 cell size :
        i : 0.07925 .. 0.07925
        j : 0.0252499 .. 0.0252499
        k : 0.247017 .. 0.247017

    Block 1008 cell size :
        i : 0.0760862 .. 0.0760862
        j : 0.0249894 .. 0.0249894
        k : 0.209419 .. 0.209419

    Block 1009 cell size :
        i : 0.0356347 .. 0.0356347
        j : 0.034504 .. 0.034504
        k : 0.248251 .. 0.248251

    Block 1010 cell size :
        i : 0.07925 .. 0.07925
        j : 0.02475 .. 0.02475
        k : 0.255863 .. 0.255863

    Block 1011 cell size :
        i : 0.07925 .. 0.07925
        j : 0.0250052 .. 0.0250052
        k : 0.294653 .. 0.294653

    Block 1012 cell size :
        i : 0.07925 .. 0.07925
        j : 0.0252499 .. 0.0252499
        k : 0.254632 .. 0.254632

    Block 1013 cell size :
        i : 0.0760862 .. 0.0760862
        j : 0.0249894 .. 0.0249894
        k : 0.21715 .. 0.21715

    Block 1014 cell size :
        i : 0.0356347 .. 0.0356347
        j : 0.034504 .. 0.034504
        k : 0.255863 .. 0.255863

    Block 1015 cell size :
        i : 0.07925 .. 0.07925
        j : 0.02475 .. 0.02475
        k : 0.254359 .. 0.254359

    Block 1016 cell size :
        i : 0.07925 .. 0.07925
        j : 0.0250052 .. 0.0250052
        k : 0.293499 .. 0.293499

    Block 1017 cell size :
        i : 0.07925 .. 0.07925
        j : 0.0252499 .. 0.0252499
        k : 0.253118 .. 0.253118

    Block 1018 cell size :
        i : 0.0760862 .. 0.0760862
        j : 0.0249894 .. 0.0249894
        k : 0.215294 .. 0.215294

    Block 1019 cell size :
        i : 0.0356347 .. 0.0356347
        j : 0.034504 .. 0.034504
        k : 0.254359 .. 0.254359

    Block 1020 cell size :
        i : 0.07925 .. 0.07925
        j : 0.02475 .. 0.02475
        k : 0.244233 .. 0.244233

    Block 1021 cell size :
        i : 0.07925 .. 0.07925
        j : 0.0250052 .. 0.0250052
        k : 0.284139 .. 0.284139

    Block 1022 cell size :
        i : 0.07925 .. 0.07925
        j : 0.0252499 .. 0.0252499
        k : 0.242967 .. 0.242967

    Block 1023 cell size :
        i : 0.0760862 .. 0.0760862
        j : 0.0249894 .. 0.0249894
        k : 0.204408 .. 0.204408

    Block 1024 cell size :
        i : 0.0356347 .. 0.0356347
        j : 0.0345039 .. 0.0345039
        k : 0.244233 .. 0.244233

    Block 1025 cell size :
        i : 0.07925 .. 0.07925
        j : 0.02475 .. 0.02475
        k : 0.235077 .. 0.235077

    Block 1026 cell size :
        i : 0.07925 .. 0.07925
        j : 0.0250052 .. 0.0250052
        k : 0.275738 .. 0.275738

    Block 1027 cell size :
        i : 0.07925 .. 0.07925
        j : 0.0252499 .. 0.0252499
        k : 0.233787 .. 0.233787

    Block 1028 cell size :
        i : 0.0760862 .. 0.0760862
        j : 0.0249894 .. 0.0249894
        k : 0.194507 .. 0.194507

    Block 1029 cell size :
        i : 0.0356347 .. 0.0356347
        j : 0.034504 .. 0.034504
        k : 0.235077 .. 0.235077

    Block 1030 cell size :
        i : 0.07925 .. 0.07925
        j : 0.02475 .. 0.02475
        k : 0.227008 .. 0.227008

    Block 1031 cell size :
        i : 0.07925 .. 0.07925
        j : 0.0250052 .. 0.0250052
        k : 0.268419 .. 0.268419

    Block 1032 cell size :
        i : 0.07925 .. 0.07925
        j : 0.0252499 .. 0.0252499
        k : 0.225695 .. 0.225695

    Block 1033 cell size :
        i : 0.0760862 .. 0.0760862
        j : 0.0249894 .. 0.0249894
        k : 0.185704 .. 0.185704

    Block 1034 cell size :
        i : 0.0356347 .. 0.0356347
        j : 0.034504 .. 0.034504
        k : 0.227008 .. 0.227008

    Block 1035 cell size :
        i : 0.07925 .. 0.07925
        j : 0.02475 .. 0.02475
        k : 0.220146 .. 0.220146

    Block 1036 cell size :
        i : 0.07925 .. 0.07925
        j : 0.0250052 .. 0.0250052
        k : 0.262305 .. 0.262305

    Block 1037 cell size :
        i : 0.07925 .. 0.07925
        j : 0.0252499 .. 0.0252499
        k : 0.21881 .. 0.21881

    Block 1038 cell size :
        i : 0.0760862 .. 0.0760862
        j : 0.0249894 .. 0.0249894
        k : 0.178111 .. 0.178111

    Block 1039 cell size :
        i : 0.0356347 .. 0.0356347
        j : 0.034504 .. 0.034504
        k : 0.220146 .. 0.220146

    Block 1040 cell size :
        i : 0.07925 .. 0.07925
        j : 0.02475 .. 0.02475
        k : 0.214608 .. 0.214608

    Block 1041 cell size :
        i : 0.07925 .. 0.07925
        j : 0.0250052 .. 0.0250052
        k : 0.257515 .. 0.257515

    Block 1042 cell size :
        i : 0.07925 .. 0.07925
        j : 0.0252499 .. 0.0252499
        k : 0.213247 .. 0.213247

    Block 1043 cell size :
        i : 0.0760862 .. 0.0760862
        j : 0.0249894 .. 0.0249894
        k : 0.17184 .. 0.17184

    Block 1044 cell size :
        i : 0.0356347 .. 0.0356347
        j : 0.034504 .. 0.034504
        k : 0.214608 .. 0.214608

    Block 1045 cell size :
        i : 0.07925 .. 0.07925
        j : 0.02475 .. 0.02475
        k : 0.210496 .. 0.210496

    Block 1046 cell size :
        i : 0.07925 .. 0.07925
        j : 0.0250052 .. 0.0250052
        k : 0.254156 .. 0.254156

    Block 1047 cell size :
        i : 0.07925 .. 0.07925
        j : 0.0252499 .. 0.0252499
        k : 0.209112 .. 0.209112

    Block 1048 cell size :
        i : 0.0760862 .. 0.0760862
        j : 0.0249894 .. 0.0249894
        k : 0.166993 .. 0.166993

    Block 1049 cell size :
        i : 0.0356347 .. 0.0356347
        j : 0.034504 .. 0.034504
        k : 0.210496 .. 0.210496

    Block 1050 cell size :
        i : 0.07925 .. 0.07925
        j : 0.02475 .. 0.02475
        k : 0.207897 .. 0.207897

    Block 1051 cell size :
        i : 0.07925 .. 0.07925
        j : 0.0250052 .. 0.0250052
        k : 0.252312 .. 0.252312

    Block 1052 cell size :
        i : 0.07925 .. 0.07925
        j : 0.0252499 .. 0.0252499
        k : 0.20649 .. 0.20649

    Block 1053 cell size :
        i : 0.0760862 .. 0.0760862
        j : 0.0249894 .. 0.0249894
        k : 0.163653 .. 0.163653

    Block 1054 cell size :
        i : 0.0356347 .. 0.0356347
        j : 0.034504 .. 0.034504
        k : 0.207897 .. 0.207897

    Block 1055 cell size :
        i : 0.07925 .. 0.07925
        j : 0.02475 .. 0.02475
        k : 0.206867 .. 0.206867

    Block 1056 cell size :
        i : 0.07925 .. 0.07925
        j : 0.0250052 .. 0.0250052
        k : 0.252038 .. 0.252038

    Block 1057 cell size :
        i : 0.07925 .. 0.07925
        j : 0.0252499 .. 0.0252499
        k : 0.205436 .. 0.205436

    Block 1058 cell size :
        i : 0.0760862 .. 0.0760862
        j : 0.0249894 .. 0.0249894
        k : 0.16188 .. 0.16188

    Block 1059 cell size :
        i : 0.0356347 .. 0.0356347
        j : 0.034504 .. 0.034504
        k : 0.206867 .. 0.206867

    Block 1060 cell size :
        i : 0.07925 .. 0.07925
        j : 0.02475 .. 0.02475
        k : 0.20743 .. 0.20743

    Block 1061 cell size :
        i : 0.07925 .. 0.07925
        j : 0.0250052 .. 0.0250052
        k : 0.253356 .. 0.253356

    Block 1062 cell size :
        i : 0.07925 .. 0.07925
        j : 0.0252499 .. 0.0252499
        k : 0.205974 .. 0.205974

    Block 1063 cell size :
        i : 0.0760862 .. 0.0760862
        j : 0.0249894 .. 0.0249894
        k : 0.161698 .. 0.161698

    Block 1064 cell size :
        i : 0.0356347 .. 0.0356347
        j : 0.034504 .. 0.034504
        k : 0.20743 .. 0.20743

    Block 1065 cell size :
        i : 0.07925 .. 0.07925
        j : 0.02475 .. 0.02475
        k : 0.213154 .. 0.213154

    Block 1066 cell size :
        i : 0.07925 .. 0.07925
        j : 0.0250052 .. 0.0250052
        k : 0.258865 .. 0.258865

    Block 1067 cell size :
        i : 0.07925 .. 0.07925
        j : 0.0252499 .. 0.0252499
        k : 0.211706 .. 0.211706

    Block 1068 cell size :
        i : 0.0760862 .. 0.0760862
        j : 0.0249894 .. 0.0249894
        k : 0.167631 .. 0.167631

    Block 1069 cell size :
        i : 0.0356347 .. 0.0356347
        j : 0.034504 .. 0.034504
        k : 0.213154 .. 0.213154

    Block 1070 cell size :
        i : 0.07925 .. 0.07925
        j : 0.02475 .. 0.02475
        k : 0.234479 .. 0.234479

    Block 1071 cell size :
        i : 0.07925 .. 0.07925
        j : 0.0250052 .. 0.0250052
        k : 0.27614 .. 0.27614

    Block 1072 cell size :
        i : 0.07925 .. 0.07925
        j : 0.0252499 .. 0.0252499
        k : 0.233158 .. 0.233158

    Block 1073 cell size :
        i : 0.0760862 .. 0.0760862
        j : 0.0249894 .. 0.0249894
        k : 0.192946 .. 0.192946

    Block 1074 cell size :
        i : 0.0356347 .. 0.0356347
        j : 0.034504 .. 0.034504
        k : 0.234479 .. 0.234479

    Block 1075 cell size :
        i : 0.07925 .. 0.07925
        j : 0.02475 .. 0.02475
        k : 0.258517 .. 0.258517

    Block 1076 cell size :
        i : 0.07925 .. 0.07925
        j : 0.0250052 .. 0.0250052
        k : 0.295702 .. 0.295702

    Block 1077 cell size :
        i : 0.07925 .. 0.07925
        j : 0.0252499 .. 0.0252499
        k : 0.257337 .. 0.257337

    Block 1078 cell size :
        i : 0.0760862 .. 0.0760862
        j : 0.0249894 .. 0.0249894
        k : 0.221427 .. 0.221427

    Block 1079 cell size :
        i : 0.0356347 .. 0.0356347
        j : 0.034504 .. 0.034504
        k : 0.258517 .. 0.258517

    Block 1080 cell size :
        i : 0.07925 .. 0.07925
        j : 0.02475 .. 0.02475
        k : 0.283519 .. 0.283519

    Block 1081 cell size :
        i : 0.07925 .. 0.07925
        j : 0.0250052 .. 0.0250052
        k : 0.316204 .. 0.316204

    Block 1082 cell size :
        i : 0.07925 .. 0.07925
        j : 0.0252499 .. 0.0252499
        k : 0.282482 .. 0.282482

    Block 1083 cell size :
        i : 0.0760862 .. 0.0760862
        j : 0.0249894 .. 0.0249894
        k : 0.250912 .. 0.250912

    Block 1084 cell size :
        i : 0.0356347 .. 0.0356347
        j : 0.034504 .. 0.034504
        k : 0.283519 .. 0.283519

    Block 1085 cell size :
        i : 0.07925 .. 0.07925
        j : 0.02475 .. 0.02475
        k : 0.309251 .. 0.309251

    Block 1086 cell size :
        i : 0.07925 .. 0.07925
        j : 0.0250052 .. 0.0250052
        k : 0.337426 .. 0.337426

    Block 1087 cell size :
        i : 0.07925 .. 0.07925
        j : 0.0252499 .. 0.0252499
        k : 0.308358 .. 0.308358

    Block 1088 cell size :
        i : 0.0760862 .. 0.0760862
        j : 0.0249894 .. 0.0249894
        k : 0.281141 .. 0.281141

    Block 1089 cell size :
        i : 0.0356347 .. 0.0356347
        j : 0.034504 .. 0.034504
        k : 0.309251 .. 0.309251

    Block 1090 cell size :
        i : 0.07925 .. 0.07925
        j : 0.02475 .. 0.02475
        k : 0.335546 .. 0.335546

    Block 1091 cell size :
        i : 0.07925 .. 0.07925
        j : 0.0250052 .. 0.0250052
        k : 0.359215 .. 0.359215

    Block 1092 cell size :
        i : 0.07925 .. 0.07925
        j : 0.0252499 .. 0.0252499
        k : 0.334795 .. 0.334795

    Block 1093 cell size :
        i : 0.0760862 .. 0.0760862
        j : 0.0249894 .. 0.0249894
        k : 0.311929 .. 0.311929

    Block 1094 cell size :
        i : 0.0356347 .. 0.0356347
        j : 0.034504 .. 0.034504
        k : 0.335546 .. 0.335546

    Block 1095 cell size :
        i : 0.07925 .. 0.07925
        j : 0.02475 .. 0.02475
        k : 0.362281 .. 0.362281

    Block 1096 cell size :
        i : 0.07925 .. 0.07925
        j : 0.0250052 .. 0.0250052
        k : 0.381457 .. 0.381457

    Block 1097 cell size :
        i : 0.07925 .. 0.07925
        j : 0.0252499 .. 0.0252499
        k : 0.361673 .. 0.361673

    Block 1098 cell size :
        i : 0.0760862 .. 0.0760862
        j : 0.0249894 .. 0.0249894
        k : 0.343144 .. 0.343144

    Block 1099 cell size :
        i : 0.0356347 .. 0.0356347
        j : 0.034504 .. 0.034504
        k : 0.362281 .. 0.362281

    Block 1100 cell size :
        i : 0.07925 .. 0.07925
        j : 0.02475 .. 0.02475
        k : 0.389365 .. 0.389365

    Block 1101 cell size :
        i : 0.07925 .. 0.07925
        j : 0.0250052 .. 0.0250052
        k : 0.404065 .. 0.404065

    Block 1102 cell size :
        i : 0.07925 .. 0.07925
        j : 0.0252499 .. 0.0252499
        k : 0.388899 .. 0.388899

    Block 1103 cell size :
        i : 0.0760862 .. 0.0760862
        j : 0.0249894 .. 0.0249894
        k : 0.374691 .. 0.374691

    Block 1104 cell size :
        i : 0.0356347 .. 0.0356347
        j : 0.034504 .. 0.034504
        k : 0.389365 .. 0.389365

    Block 1105 cell size :
        i : 0.07925 .. 0.07925
        j : 0.02475 .. 0.02475
        k : 0.416731 .. 0.416731

    Block 1106 cell size :
        i : 0.07925 .. 0.07925
        j : 0.0250052 .. 0.0250052
        k : 0.426968 .. 0.426968

    Block 1107 cell size :
        i : 0.07925 .. 0.07925
        j : 0.0252499 .. 0.0252499
        k : 0.416406 .. 0.416406

    Block 1108 cell size :
        i : 0.0760862 .. 0.0760862
        j : 0.0249894 .. 0.0249894
        k : 0.406508 .. 0.406508

    Block 1109 cell size :
        i : 0.0356347 .. 0.0356347
        j : 0.034504 .. 0.034504
        k : 0.416731 .. 0.416731

    Block 1110 cell size :
        i : 0.07925 .. 0.07925
        j : 0.02475 .. 0.02475
        k : 0.444325 .. 0.444325

    Block 1111 cell size :
        i : 0.07925 .. 0.07925
        j : 0.0250052 .. 0.0250052
        k : 0.450107 .. 0.450107

    Block 1112 cell size :
        i : 0.07925 .. 0.07925
        j : 0.0252499 .. 0.0252499
        k : 0.444142 .. 0.444142

    Block 1113 cell size :
        i : 0.0760862 .. 0.0760862
        j : 0.0249894 .. 0.0249894
        k : 0.438551 .. 0.438551

    Block 1114 cell size :
        i : 0.0356347 .. 0.0356347
        j : 0.034504 .. 0.034504
        k : 0.444325 .. 0.444325

    Block 1115 cell size :
        i : 0.07925 .. 0.07925
        j : 0.02475 .. 0.02475
        k : 0.472109 .. 0.472109

    Block 1116 cell size :
        i : 0.07925 .. 0.07925
        j : 0.0250052 .. 0.0250052
        k : 0.47343 .. 0.47343

    Block 1117 cell size :
        i : 0.07925 .. 0.07925
        j : 0.0252499 .. 0.0252499
        k : 0.472067 .. 0.472067

    Block 1118 cell size :
        i : 0.0760862 .. 0.0760862
        j : 0.0249894 .. 0.0249894
        k : 0.47079 .. 0.47079

    Block 1119 cell size :
        i : 0.0356347 .. 0.0356347
        j : 0.034504 .. 0.034504
        k : 0.472109 .. 0.472109

    Block 1120 cell size :
        i : 0.07925 .. 0.07925
        j : 0.02475 .. 0.02475
        k : 0.50005 .. 0.50005

    Block 1121 cell size :
        i : 0.07925 .. 0.07925
        j : 0.0250052 .. 0.0250052
        k : 0.496895 .. 0.496895

    Block 1122 cell size :
        i : 0.07925 .. 0.07925
        j : 0.0252499 .. 0.0252499
        k : 0.500151 .. 0.500151

    Block 1123 cell size :
        i : 0.0760862 .. 0.0760862
        j : 0.0249894 .. 0.0249894
        k : 0.503203 .. 0.503203

    Block 1124 cell size :
        i : 0.0356347 .. 0.0356347
        j : 0.034504 .. 0.034504
        k : 0.50005 .. 0.50005

    Block 1125 cell size :
        i : 0.07925 .. 0.07925
        j : 0.02475 .. 0.02475
        k : 0.528124 .. 0.528124

    Block 1126 cell size :
        i : 0.07925 .. 0.07925
        j : 0.0250052 .. 0.0250052
        k : 0.520472 .. 0.520472

    Block 1127 cell size :
        i : 0.07925 .. 0.07925
        j : 0.0252499 .. 0.0252499
        k : 0.528367 .. 0.528367

    Block 1128 cell size :
        i : 0.0760862 .. 0.0760862
        j : 0.0249894 .. 0.0249894
        k : 0.53577 .. 0.53577

    Block 1129 cell size :
        i : 0.0356347 .. 0.0356347
        j : 0.034504 .. 0.034504
        k : 0.528124 .. 0.528124

    Block 1130 cell size :
        i : 0.07925 .. 0.07925
        j : 0.02475 .. 0.02475
        k : 0.556311 .. 0.556311

    Block 1131 cell size :
        i : 0.07925 .. 0.07925
        j : 0.0250052 .. 0.0250052
        k : 0.544143 .. 0.544143

    Block 1132 cell size :
        i : 0.07925 .. 0.07925
        j : 0.0252499 .. 0.0252499
        k : 0.556697 .. 0.556697

    Block 1133 cell size :
        i : 0.0760862 .. 0.0760862
        j : 0.0249894 .. 0.0249894
        k : 0.568467 .. 0.568467

    Block 1134 cell size :
        i : 0.0356347 .. 0.0356347
        j : 0.034504 .. 0.034504
        k : 0.556311 .. 0.556311

    Block 1135 cell size :
        i : 0.07925 .. 0.07925
        j : 0.02475 .. 0.02475
        k : 0.584593 .. 0.584593

    Block 1136 cell size :
        i : 0.07925 .. 0.07925
        j : 0.0250052 .. 0.0250052
        k : 0.567908 .. 0.567908

    Block 1137 cell size :
        i : 0.07925 .. 0.07925
        j : 0.0252499 .. 0.0252499
        k : 0.585123 .. 0.585123

    Block 1138 cell size :
        i : 0.0760862 .. 0.0760862
        j : 0.0249894 .. 0.0249894
        k : 0.601262 .. 0.601262

    Block 1139 cell size :
        i : 0.0356347 .. 0.0356347
        j : 0.034504 .. 0.034504
        k : 0.584593 .. 0.584593

    Block 1140 cell size :
        i : 0.07925 .. 0.07925
        j : 0.02475 .. 0.02475
        k : 0.612959 .. 0.612959

    Block 1141 cell size :
        i : 0.07925 .. 0.07925
        j : 0.0250052 .. 0.0250052
        k : 0.591789 .. 0.591789

    Block 1142 cell size :
        i : 0.07925 .. 0.07925
        j : 0.0252499 .. 0.0252499
        k : 0.613631 .. 0.613631

    Block 1143 cell size :
        i : 0.0760862 .. 0.0760862
        j : 0.0249894 .. 0.0249894
        k : 0.634109 .. 0.634109

    Block 1144 cell size :
        i : 0.0356347 .. 0.0356347
        j : 0.034504 .. 0.034504
        k : 0.612959 .. 0.612959


There are no merge patch pairs

Writing polyMesh with 0 cellZones
----------------
Mesh Information
----------------
  boundingBox: (-3.49466 -5.73742 -0.528838) (3.60691 3.49965 4.50796)
  nPoints: 119830
  nCells: 114500
  nFaces: 348580
  nInternalFaces: 338420
----------------
Patches
----------------
  patch 0 (start: 338420 size: 500) name: inlet
  patch 1 (start: 338920 size: 500) name: outlet
  patch 2 (start: 339420 size: 9160) name: walls

End

