/*---------------------------------------------------------------------------*\
| =========                 |                                                 |
| \\      /  F ield         | OpenFOAM: The Open Source CFD Toolbox           |
|  \\    /   O peration     | Version:  2206                                  |
|   \\  /    A nd           | Website:  www.openfoam.com                      |
|    \\/     M anipulation  |                                                 |
\*---------------------------------------------------------------------------*/
Build  : _76d719d1-20220624 OPENFOAM=2206 version=2206
Arch   : "LSB;label=32;scalar=64"
Exec   : blockMesh
Date   : Jun 12 2023
Time   : 10:14:17
Host   : 48890fced8bd
PID    : 26734
I/O    : uncollated
Case   : /root/pulsed-reactor-optimisation/mesh_generation/ssc
nProcs : 1
trapFpe: Floating point exception trapping enabled (FOAM_SIGFPE).
fileModificationChecking : Monitoring run-time modified files using timeStampMaster (fileModificationSkew 5, maxFileModificationPolls 20)
allowSystemOperations : Allowing user-supplied system call operations

// * * * * * * * * * * * * * * * * * * * * * * * * * * * * * * * * * * * * * //
Create time

Creating block mesh from "system/blockMeshDict"
Creating block edges
Creating block faces
Creating topology blocks

Creating topology patches - from boundary section

Creating block mesh topology

Check topology

	Basic statistics
		Number of internal faces : 22212
		Number of boundary faces : 3216
		Number of defined boundary faces : 3216
		Number of undefined boundary faces : 0
	Checking patch -> block consistency

Creating block offsets
Creating merge list (geometric search)...

Creating polyMesh from blockMesh
Creating patches
Creating cells
Creating points with scale (1 1 1)
    Block 0 cell size :
        i : 0.000250128 .. 0.000250128
        j : 0.00032051 .. 0.00032051
        k : 0.000246093 .. 0.000246093

    Block 1 cell size :
        i : 0.000250128 .. 0.000250128
        j : 0.00032052 .. 0.00032052
        k : 0.000246093 .. 0.000246093

    Block 2 cell size :
        i : 0.000250128 .. 0.000250128
        j : 0.00032051 .. 0.00032051
        k : 0.000246093 .. 0.000246093

    Block 3 cell size :
        i : 0.000250128 .. 0.000250128
        j : 0.00032051 .. 0.00032051
        k : 0.000246093 .. 0.000246093

    Block 4 cell size :
        i : 0.000250128 .. 0.000250128
        j : 0.00032051 .. 0.00032051
        k : 0.000246093 .. 0.000246093

    Block 5 cell size :
        i : 0.000250128 .. 0.000250128
        j : 0.00032052 .. 0.00032052
        k : 0.000246093 .. 0.000246093

    Block 6 cell size :
        i : 0.000250128 .. 0.000250128
        j : 0.00032051 .. 0.00032051
        k : 0.000246093 .. 0.000246093

    Block 7 cell size :
        i : 0.000250128 .. 0.000250128
        j : 0.00032051 .. 0.00032051
        k : 0.000246093 .. 0.000246093

    Block 8 cell size :
        i : 0.000250128 .. 0.000250128
        j : 0.00032052 .. 0.00032052
        k : 0.000246093 .. 0.000246093

    Block 9 cell size :
        i : 0.000250128 .. 0.000250128
        j : 0.00032051 .. 0.00032051
        k : 0.000246093 .. 0.000246093

    Block 10 cell size :
        i : 0.000250128 .. 0.000250128
        j : 0.00032051 .. 0.00032051
        k : 0.000246093 .. 0.000246093

    Block 11 cell size :
        i : 0.000250128 .. 0.000250128
        j : 0.00032051 .. 0.00032051
        k : 0.000246093 .. 0.000246093

    Block 12 cell size :
        i : 0.000250128 .. 0.000250128
        j : 0.00032052 .. 0.00032052
        k : 0.000246093 .. 0.000246093

    Block 13 cell size :
        i : 0.000250128 .. 0.000250128
        j : 0.00032051 .. 0.00032051
        k : 0.000246093 .. 0.000246093

    Block 14 cell size :
        i : 0.000250128 .. 0.000250128
        j : 0.00032051 .. 0.00032051
        k : 0.000246093 .. 0.000246093

    Block 15 cell size :
        i : 0.000250128 .. 0.000250128
        j : 0.00032052 .. 0.00032052
        k : 0.000246093 .. 0.000246093

    Block 16 cell size :
        i : 0.000250128 .. 0.000250128
        j : 0.00032051 .. 0.00032051
        k : 0.000246093 .. 0.000246093

    Block 17 cell size :
        i : 0.000250128 .. 0.000250128
        j : 0.00032051 .. 0.00032051
        k : 0.000246093 .. 0.000246093

    Block 18 cell size :
        i : 0.000250128 .. 0.000250128
        j : 0.00032051 .. 0.00032051
        k : 0.000246093 .. 0.000246093

    Block 19 cell size :
        i : 0.000250128 .. 0.000250128
        j : 0.00032052 .. 0.00032052
        k : 0.000246093 .. 0.000246093

    Block 20 cell size :
        i : 0.000250127 .. 0.000250127
        j : 0.000320511 .. 0.000320511
        k : 0.000246293 .. 0.000246293

    Block 21 cell size :
        i : 0.000250124 .. 0.000250124
        j : 0.000320515 .. 0.000320515
        k : 0.000246685 .. 0.000246685

    Block 22 cell size :
        i : 0.00025012 .. 0.00025012
        j : 0.000320522 .. 0.000320522
        k : 0.00024728 .. 0.00024728

    Block 23 cell size :
        i : 0.000250116 .. 0.000250116
        j : 0.000320542 .. 0.000320542
        k : 0.000248067 .. 0.000248067

    Block 24 cell size :
        i : 0.000250109 .. 0.000250109
        j : 0.000320544 .. 0.000320544
        k : 0.000249055 .. 0.000249055

    Block 25 cell size :
        i : 0.000250102 .. 0.000250102
        j : 0.000320559 .. 0.000320559
        k : 0.00025024 .. 0.00025024

    Block 26 cell size :
        i : 0.000250094 .. 0.000250094
        j : 0.000320587 .. 0.000320587
        k : 0.000251623 .. 0.000251623

    Block 27 cell size :
        i : 0.000250085 .. 0.000250085
        j : 0.000320597 .. 0.000320597
        k : 0.0002532 .. 0.0002532

    Block 28 cell size :
        i : 0.000250075 .. 0.000250075
        j : 0.000320621 .. 0.000320621
        k : 0.00025498 .. 0.00025498

    Block 29 cell size :
        i : 0.000250064 .. 0.000250064
        j : 0.000320646 .. 0.000320646
        k : 0.000256953 .. 0.000256953

    Block 30 cell size :
        i : 0.000250053 .. 0.000250053
        j : 0.000320685 .. 0.000320685
        k : 0.000259125 .. 0.000259125

    Block 31 cell size :
        i : 0.000250041 .. 0.000250041
        j : 0.000320707 .. 0.000320707
        k : 0.000261495 .. 0.000261495

    Block 32 cell size :
        i : 0.000250028 .. 0.000250028
        j : 0.000320741 .. 0.000320741
        k : 0.00026406 .. 0.00026406

    Block 33 cell size :
        i : 0.000250016 .. 0.000250016
        j : 0.000320788 .. 0.000320788
        k : 0.000266825 .. 0.000266825

    Block 34 cell size :
        i : 0.000250004 .. 0.000250004
        j : 0.000320817 .. 0.000320817
        k : 0.000269785 .. 0.000269785

    Block 35 cell size :
        i : 0.000249991 .. 0.000249991
        j : 0.00032086 .. 0.00032086
        k : 0.000272945 .. 0.000272945

    Block 36 cell size :
        i : 0.000249979 .. 0.000249979
        j : 0.000320905 .. 0.000320905
        k : 0.000276303 .. 0.000276303

    Block 37 cell size :
        i : 0.000249968 .. 0.000249968
        j : 0.000320962 .. 0.000320962
        k : 0.000279855 .. 0.000279855

    Block 38 cell size :
        i : 0.000249957 .. 0.000249957
        j : 0.000321003 .. 0.000321003
        k : 0.000283608 .. 0.000283608

    Block 39 cell size :
        i : 0.000252574 .. 0.000252574
        j : 0.000409846 .. 0.000409846
        k : 0.000288838 .. 0.000288838

    Block 40 cell size :
        i : 0.000255124 .. 0.000255124
        j : 0.000409766 .. 0.000409766
        k : 0.000294426 .. 0.000294426

    Block 41 cell size :
        i : 0.000257613 .. 0.000257613
        j : 0.00040968 .. 0.00040968
        k : 0.000300141 .. 0.000300141

    Block 42 cell size :
        i : 0.00026003 .. 0.00026003
        j : 0.000409623 .. 0.000409623
        k : 0.000305818 .. 0.000305818

    Block 43 cell size :
        i : 0.000262385 .. 0.000262385
        j : 0.000409547 .. 0.000409547
        k : 0.000311446 .. 0.000311446

    Block 44 cell size :
        i : 0.000264671 .. 0.000264671
        j : 0.000409493 .. 0.000409493
        k : 0.000317029 .. 0.000317029

    Block 45 cell size :
        i : 0.000266894 .. 0.000266894
        j : 0.000409447 .. 0.000409447
        k : 0.000322561 .. 0.000322561

    Block 46 cell size :
        i : 0.000269048 .. 0.000269048
        j : 0.000409418 .. 0.000409418
        k : 0.000328044 .. 0.000328044

    Block 47 cell size :
        i : 0.000271137 .. 0.000271137
        j : 0.000409391 .. 0.000409391
        k : 0.000333472 .. 0.000333472

    Block 48 cell size :
        i : 0.000273161 .. 0.000273161
        j : 0.000409381 .. 0.000409381
        k : 0.000338851 .. 0.000338851

    Block 49 cell size :
        i : 0.000275115 .. 0.000275115
        j : 0.000409376 .. 0.000409376
        k : 0.000344175 .. 0.000344175

    Block 50 cell size :
        i : 0.000277005 .. 0.000277005
        j : 0.000409381 .. 0.000409381
        k : 0.00034945 .. 0.00034945

    Block 51 cell size :
        i : 0.000278826 .. 0.000278826
        j : 0.000409401 .. 0.000409401
        k : 0.000354669 .. 0.000354669

    Block 52 cell size :
        i : 0.000280584 .. 0.000280584
        j : 0.000409437 .. 0.000409437
        k : 0.000359835 .. 0.000359835

    Block 53 cell size :
        i : 0.000282272 .. 0.000282272
        j : 0.000409476 .. 0.000409476
        k : 0.00036495 .. 0.00036495

    Block 54 cell size :
        i : 0.000283896 .. 0.000283896
        j : 0.000409521 .. 0.000409521
        k : 0.000370006 .. 0.000370006

    Block 55 cell size :
        i : 0.000285454 .. 0.000285454
        j : 0.000409585 .. 0.000409585
        k : 0.000375016 .. 0.000375016

    Block 56 cell size :
        i : 0.000286941 .. 0.000286941
        j : 0.000409656 .. 0.000409656
        k : 0.000379967 .. 0.000379967

    Block 57 cell size :
        i : 0.000288364 .. 0.000288364
        j : 0.000409743 .. 0.000409743
        k : 0.000384867 .. 0.000384867

    Block 58 cell size :
        i : 0.000289716 .. 0.000289716
        j : 0.000409711 .. 0.000409711
        k : 0.000389495 .. 0.000389495

    Block 59 cell size :
        i : 0.000291004 .. 0.000291004
        j : 0.000409694 .. 0.000409694
        k : 0.000393851 .. 0.000393851

    Block 60 cell size :
        i : 0.000292221 .. 0.000292221
        j : 0.000409675 .. 0.000409675
        k : 0.000397935 .. 0.000397935

    Block 61 cell size :
        i : 0.000293373 .. 0.000293373
        j : 0.000409665 .. 0.000409665
        k : 0.000401749 .. 0.000401749

    Block 62 cell size :
        i : 0.000294453 .. 0.000294453
        j : 0.000409669 .. 0.000409669
        k : 0.000405286 .. 0.000405286

    Block 63 cell size :
        i : 0.000295465 .. 0.000295465
        j : 0.00040967 .. 0.00040967
        k : 0.000408554 .. 0.000408554

    Block 64 cell size :
        i : 0.000296411 .. 0.000296411
        j : 0.000409683 .. 0.000409683
        k : 0.00041155 .. 0.00041155

    Block 65 cell size :
        i : 0.000297284 .. 0.000297284
        j : 0.000409707 .. 0.000409707
        k : 0.000414271 .. 0.000414271

    Block 66 cell size :
        i : 0.000298091 .. 0.000298091
        j : 0.000409728 .. 0.000409728
        k : 0.000416721 .. 0.000416721

    Block 67 cell size :
        i : 0.000298828 .. 0.000298828
        j : 0.000409765 .. 0.000409765
        k : 0.000418896 .. 0.000418896

    Block 68 cell size :
        i : 0.000299497 .. 0.000299497
        j : 0.000409817 .. 0.000409817
        k : 0.000420798 .. 0.000420798

    Block 69 cell size :
        i : 0.000300095 .. 0.000300095
        j : 0.000409857 .. 0.000409857
        k : 0.000422426 .. 0.000422426

    Block 70 cell size :
        i : 0.000300625 .. 0.000300625
        j : 0.000409912 .. 0.000409912
        k : 0.000423783 .. 0.000423783

    Block 71 cell size :
        i : 0.000301085 .. 0.000301085
        j : 0.000409982 .. 0.000409982
        k : 0.000424862 .. 0.000424862

    Block 72 cell size :
        i : 0.000301475 .. 0.000301475
        j : 0.000410045 .. 0.000410045
        k : 0.000425671 .. 0.000425671

    Block 73 cell size :
        i : 0.000301795 .. 0.000301795
        j : 0.000410136 .. 0.000410136
        k : 0.000426207 .. 0.000426207

    Block 74 cell size :
        i : 0.000302048 .. 0.000302048
        j : 0.000410214 .. 0.000410214
        k : 0.000426469 .. 0.000426469

    Block 75 cell size :
        i : 0.00030223 .. 0.00030223
        j : 0.000410298 .. 0.000410298
        k : 0.000426457 .. 0.000426457

    Block 76 cell size :
        i : 0.000302342 .. 0.000302342
        j : 0.000410415 .. 0.000410415
        k : 0.000426168 .. 0.000426168

    Block 77 cell size :
        i : 0.000302385 .. 0.000302385
        j : 0.000410511 .. 0.000410511
        k : 0.000425607 .. 0.000425607

    Block 78 cell size :
        i : 0.000302358 .. 0.000302358
        j : 0.000410632 .. 0.000410632
        k : 0.000424776 .. 0.000424776

    Block 79 cell size :
        i : 0.000302261 .. 0.000302261
        j : 0.000410751 .. 0.000410751
        k : 0.000423666 .. 0.000423666

    Block 80 cell size :
        i : 0.000302098 .. 0.000302098
        j : 0.000410884 .. 0.000410884
        k : 0.000422284 .. 0.000422284

    Block 81 cell size :
        i : 0.00030186 .. 0.00030186
        j : 0.000411014 .. 0.000411014
        k : 0.000420628 .. 0.000420628

    Block 82 cell size :
        i : 0.000301555 .. 0.000301555
        j : 0.000411164 .. 0.000411164
        k : 0.0004187 .. 0.0004187

    Block 83 cell size :
        i : 0.000301183 .. 0.000301183
        j : 0.000411321 .. 0.000411321
        k : 0.000416494 .. 0.000416494

    Block 84 cell size :
        i : 0.000300738 .. 0.000300738
        j : 0.000411477 .. 0.000411477
        k : 0.000414016 .. 0.000414016

    Block 85 cell size :
        i : 0.000300226 .. 0.000300226
        j : 0.000411644 .. 0.000411644
        k : 0.000411264 .. 0.000411264

    Block 86 cell size :
        i : 0.000299645 .. 0.000299645
        j : 0.000411824 .. 0.000411824
        k : 0.00040824 .. 0.00040824

    Block 87 cell size :
        i : 0.000298995 .. 0.000298995
        j : 0.000411994 .. 0.000411994
        k : 0.000404939 .. 0.000404939

    Block 88 cell size :
        i : 0.000298275 .. 0.000298275
        j : 0.000412199 .. 0.000412199
        k : 0.000401369 .. 0.000401369

    Block 89 cell size :
        i : 0.000297486 .. 0.000297486
        j : 0.000412386 .. 0.000412386
        k : 0.000397519 .. 0.000397519

    Block 90 cell size :
        i : 0.000296631 .. 0.000296631
        j : 0.000412598 .. 0.000412598
        k : 0.000393397 .. 0.000393397

    Block 91 cell size :
        i : 0.000295703 .. 0.000295703
        j : 0.000412811 .. 0.000412811
        k : 0.000389004 .. 0.000389004

    Block 92 cell size :
        i : 0.000294709 .. 0.000294709
        j : 0.000413037 .. 0.000413037
        k : 0.000384337 .. 0.000384337

    Block 93 cell size :
        i : 0.000293648 .. 0.000293648
        j : 0.000413253 .. 0.000413253
        k : 0.000379395 .. 0.000379395

    Block 94 cell size :
        i : 0.000292518 .. 0.000292518
        j : 0.000413497 .. 0.000413497
        k : 0.000374179 .. 0.000374179

    Block 95 cell size :
        i : 0.00029132 .. 0.00029132
        j : 0.000413736 .. 0.000413736
        k : 0.00036869 .. 0.00036869

    Block 96 cell size :
        i : 0.000290057 .. 0.000290057
        j : 0.000413995 .. 0.000413995
        k : 0.000362928 .. 0.000362928

    Block 97 cell size :
        i : 0.000288723 .. 0.000288723
        j : 0.000414246 .. 0.000414246
        k : 0.000356894 .. 0.000356894

    Block 98 cell size :
        i : 0.000287323 .. 0.000287323
        j : 0.000414521 .. 0.000414521
        k : 0.000350586 .. 0.000350586

    Block 99 cell size :
        i : 0.000285859 .. 0.000285859
        j : 0.00041479 .. 0.00041479
        k : 0.000344007 .. 0.000344007

    Block 100 cell size :
        i : 0.000284326 .. 0.000284326
        j : 0.000415075 .. 0.000415075
        k : 0.000337153 .. 0.000337153

    Block 101 cell size :
        i : 0.000282731 .. 0.000282731
        j : 0.00041536 .. 0.00041536
        k : 0.000330031 .. 0.000330031

    Block 102 cell size :
        i : 0.000281067 .. 0.000281067
        j : 0.00041566 .. 0.00041566
        k : 0.000322631 .. 0.000322631

    Block 103 cell size :
        i : 0.000279338 .. 0.000279338
        j : 0.000415961 .. 0.000415961
        k : 0.000314965 .. 0.000314965

    Block 104 cell size :
        i : 0.000277543 .. 0.000277543
        j : 0.000416275 .. 0.000416275
        k : 0.000307024 .. 0.000307024

    Block 105 cell size :
        i : 0.000275685 .. 0.000275685
        j : 0.000416604 .. 0.000416604
        k : 0.000298814 .. 0.000298814

    Block 106 cell size :
        i : 0.000273763 .. 0.000273763
        j : 0.000416924 .. 0.000416924
        k : 0.000290336 .. 0.000290336

    Block 107 cell size :
        i : 0.000271807 .. 0.000271807
        j : 0.000417241 .. 0.000417241
        k : 0.000281717 .. 0.000281717

    Block 108 cell size :
        i : 0.000269936 .. 0.000269936
        j : 0.000417466 .. 0.000417466
        k : 0.000273435 .. 0.000273435

    Block 109 cell size :
        i : 0.00026815 .. 0.00026815
        j : 0.000417682 .. 0.000417682
        k : 0.000265528 .. 0.000265528

    Block 110 cell size :
        i : 0.000266456 .. 0.000266456
        j : 0.000417893 .. 0.000417893
        k : 0.000257994 .. 0.000257994

    Block 111 cell size :
        i : 0.00026485 .. 0.00026485
        j : 0.000418083 .. 0.000418083
        k : 0.000250838 .. 0.000250838

    Block 112 cell size :
        i : 0.000263335 .. 0.000263335
        j : 0.000418282 .. 0.000418282
        k : 0.000244053 .. 0.000244053

    Block 113 cell size :
        i : 0.000261908 .. 0.000261908
        j : 0.000418462 .. 0.000418462
        k : 0.000237643 .. 0.000237643

    Block 114 cell size :
        i : 0.000260568 .. 0.000260568
        j : 0.00041863 .. 0.00041863
        k : 0.000231608 .. 0.000231608

    Block 115 cell size :
        i : 0.000259317 .. 0.000259317
        j : 0.000418804 .. 0.000418804
        k : 0.000225947 .. 0.000225947

    Block 116 cell size :
        i : 0.000258152 .. 0.000258152
        j : 0.000418961 .. 0.000418961
        k : 0.00022066 .. 0.00022066

    Block 117 cell size :
        i : 0.000257075 .. 0.000257075
        j : 0.000419112 .. 0.000419112
        k : 0.000215744 .. 0.000215744

    Block 118 cell size :
        i : 0.000256083 .. 0.000256083
        j : 0.000419245 .. 0.000419245
        k : 0.000211205 .. 0.000211205

    Block 119 cell size :
        i : 0.000255182 .. 0.000255182
        j : 0.00041938 .. 0.00041938
        k : 0.000207034 .. 0.000207034

    Block 120 cell size :
        i : 0.000254362 .. 0.000254362
        j : 0.00041951 .. 0.00041951
        k : 0.000203238 .. 0.000203238

    Block 121 cell size :
        i : 0.000253631 .. 0.000253631
        j : 0.000419625 .. 0.000419625
        k : 0.000199812 .. 0.000199812

    Block 122 cell size :
        i : 0.000252985 .. 0.000252985
        j : 0.000419727 .. 0.000419727
        k : 0.000196757 .. 0.000196757

    Block 123 cell size :
        i : 0.000252424 .. 0.000252424
        j : 0.000419834 .. 0.000419834
        k : 0.000194071 .. 0.000194071

    Block 124 cell size :
        i : 0.000251948 .. 0.000251948
        j : 0.000419926 .. 0.000419926
        k : 0.000191758 .. 0.000191758

    Block 125 cell size :
        i : 0.000251558 .. 0.000251558
        j : 0.000420009 .. 0.000420009
        k : 0.00018981 .. 0.00018981

    Block 126 cell size :
        i : 0.000251253 .. 0.000251253
        j : 0.000420091 .. 0.000420091
        k : 0.00018823 .. 0.00018823

    Block 127 cell size :
        i : 0.00025103 .. 0.00025103
        j : 0.000420157 .. 0.000420157
        k : 0.000187023 .. 0.000187023

    Block 128 cell size :
        i : 0.000250894 .. 0.000250894
        j : 0.000420212 .. 0.000420212
        k : 0.000186178 .. 0.000186178

    Block 129 cell size :
        i : 0.000250839 .. 0.000250839
        j : 0.000420278 .. 0.000420278
        k : 0.000185705 .. 0.000185705

    Block 130 cell size :
        i : 0.00025087 .. 0.00025087
        j : 0.000420312 .. 0.000420312
        k : 0.000185595 .. 0.000185595

    Block 131 cell size :
        i : 0.000250986 .. 0.000250986
        j : 0.000420345 .. 0.000420345
        k : 0.000185851 .. 0.000185851

    Block 132 cell size :
        i : 0.000251183 .. 0.000251183
        j : 0.000420388 .. 0.000420388
        k : 0.000186475 .. 0.000186475

    Block 133 cell size :
        i : 0.000251464 .. 0.000251464
        j : 0.000420395 .. 0.000420395
        k : 0.000187465 .. 0.000187465

    Block 134 cell size :
        i : 0.000251831 .. 0.000251831
        j : 0.000420421 .. 0.000420421
        k : 0.000188817 .. 0.000188817

    Block 135 cell size :
        i : 0.00025228 .. 0.00025228
        j : 0.000420415 .. 0.000420415
        k : 0.00019054 .. 0.00019054

    Block 136 cell size :
        i : 0.00025281 .. 0.00025281
        j : 0.000420421 .. 0.000420421
        k : 0.000192626 .. 0.000192626

    Block 137 cell size :
        i : 0.000253427 .. 0.000253427
        j : 0.000420411 .. 0.000420411
        k : 0.000195077 .. 0.000195077

    Block 138 cell size :
        i : 0.000254129 .. 0.000254129
        j : 0.000420385 .. 0.000420385
        k : 0.000197896 .. 0.000197896

    Block 139 cell size :
        i : 0.00025491 .. 0.00025491
        j : 0.000420368 .. 0.000420368
        k : 0.000201079 .. 0.000201079

    Block 140 cell size :
        i : 0.000255774 .. 0.000255774
        j : 0.00042033 .. 0.00042033
        k : 0.000204632 .. 0.000204632

    Block 141 cell size :
        i : 0.000256727 .. 0.000256727
        j : 0.000420292 .. 0.000420292
        k : 0.00020855 .. 0.00020855

    Block 142 cell size :
        i : 0.000257758 .. 0.000257758
        j : 0.000420233 .. 0.000420233
        k : 0.000212836 .. 0.000212836

    Block 143 cell size :
        i : 0.000258877 .. 0.000258877
        j : 0.000420189 .. 0.000420189
        k : 0.000217489 .. 0.000217489

    Block 144 cell size :
        i : 0.000260076 .. 0.000260076
        j : 0.000420116 .. 0.000420116
        k : 0.000222512 .. 0.000222512

    Block 145 cell size :
        i : 0.000261361 .. 0.000261361
        j : 0.000420052 .. 0.000420052
        k : 0.000227901 .. 0.000227901

    Block 146 cell size :
        i : 0.00026273 .. 0.00026273
        j : 0.000419968 .. 0.000419968
        k : 0.000233662 .. 0.000233662

    Block 147 cell size :
        i : 0.000264184 .. 0.000264184
        j : 0.00041988 .. 0.00041988
        k : 0.000239792 .. 0.000239792

    Block 148 cell size :
        i : 0.000265721 .. 0.000265721
        j : 0.00041978 .. 0.00041978
        k : 0.000246291 .. 0.000246291

    Block 149 cell size :
        i : 0.000267341 .. 0.000267341
        j : 0.000419682 .. 0.000419682
        k : 0.000253161 .. 0.000253161

    Block 150 cell size :
        i : 0.00026905 .. 0.00026905
        j : 0.000419573 .. 0.000419573
        k : 0.0002604 .. 0.0002604

    Block 151 cell size :
        i : 0.000270841 .. 0.000270841
        j : 0.000419456 .. 0.000419456
        k : 0.000268013 .. 0.000268013

    Block 152 cell size :
        i : 0.000272719 .. 0.000272719
        j : 0.000419321 .. 0.000419321
        k : 0.000275995 .. 0.000275995

    Block 153 cell size :
        i : 0.000274582 .. 0.000274582
        j : 0.000419242 .. 0.000419242
        k : 0.000283978 .. 0.000283978

    Block 154 cell size :
        i : 0.000276354 .. 0.000276354
        j : 0.000419181 .. 0.000419181
        k : 0.000291681 .. 0.000291681

    Block 155 cell size :
        i : 0.000278042 .. 0.000278042
        j : 0.000419114 .. 0.000419114
        k : 0.000299101 .. 0.000299101

    Block 156 cell size :
        i : 0.000279635 .. 0.000279635
        j : 0.000419044 .. 0.000419044
        k : 0.00030624 .. 0.00030624

    Block 157 cell size :
        i : 0.000281142 .. 0.000281142
        j : 0.000418972 .. 0.000418972
        k : 0.000313102 .. 0.000313102

    Block 158 cell size :
        i : 0.000282558 .. 0.000282558
        j : 0.000418889 .. 0.000418889
        k : 0.000319682 .. 0.000319682

    Block 159 cell size :
        i : 0.000283885 .. 0.000283885
        j : 0.000418796 .. 0.000418796
        k : 0.000325979 .. 0.000325979

    Block 160 cell size :
        i : 0.000285121 .. 0.000285121
        j : 0.000418707 .. 0.000418707
        k : 0.000331995 .. 0.000331995

    Block 161 cell size :
        i : 0.000286265 .. 0.000286265
        j : 0.000418607 .. 0.000418607
        k : 0.00033773 .. 0.00033773

    Block 162 cell size :
        i : 0.000287322 .. 0.000287322
        j : 0.00041851 .. 0.00041851
        k : 0.000343183 .. 0.000343183

    Block 163 cell size :
        i : 0.000288284 .. 0.000288284
        j : 0.0004184 .. 0.0004184
        k : 0.000348355 .. 0.000348355

    Block 164 cell size :
        i : 0.000289158 .. 0.000289158
        j : 0.00041829 .. 0.00041829
        k : 0.000353245 .. 0.000353245

    Block 165 cell size :
        i : 0.000289942 .. 0.000289942
        j : 0.000418165 .. 0.000418165
        k : 0.000357857 .. 0.000357857

    Block 166 cell size :
        i : 0.000290638 .. 0.000290638
        j : 0.000418051 .. 0.000418051
        k : 0.000362181 .. 0.000362181

    Block 167 cell size :
        i : 0.000291239 .. 0.000291239
        j : 0.000417919 .. 0.000417919
        k : 0.000366227 .. 0.000366227

    Block 168 cell size :
        i : 0.000291749 .. 0.000291749
        j : 0.000417779 .. 0.000417779
        k : 0.000369992 .. 0.000369992

    Block 169 cell size :
        i : 0.000292172 .. 0.000292172
        j : 0.000417649 .. 0.000417649
        k : 0.000373474 .. 0.000373474

    Block 170 cell size :
        i : 0.000292502 .. 0.000292502
        j : 0.000417512 .. 0.000417512
        k : 0.000376673 .. 0.000376673

    Block 171 cell size :
        i : 0.00029274 .. 0.00029274
        j : 0.000417349 .. 0.000417349
        k : 0.000379595 .. 0.000379595

    Block 172 cell size :
        i : 0.00029289 .. 0.00029289
        j : 0.000417199 .. 0.000417199
        k : 0.000382231 .. 0.000382231

    Block 173 cell size :
        i : 0.00029295 .. 0.00029295
        j : 0.000417053 .. 0.000417053
        k : 0.000384587 .. 0.000384587

    Block 174 cell size :
        i : 0.000292917 .. 0.000292917
        j : 0.000416873 .. 0.000416873
        k : 0.000386657 .. 0.000386657

    Block 175 cell size :
        i : 0.000292795 .. 0.000292795
        j : 0.000416715 .. 0.000416715
        k : 0.000388453 .. 0.000388453

    Block 176 cell size :
        i : 0.000292584 .. 0.000292584
        j : 0.00041654 .. 0.00041654
        k : 0.000389962 .. 0.000389962

    Block 177 cell size :
        i : 0.00029228 .. 0.00029228
        j : 0.000416366 .. 0.000416366
        k : 0.000391187 .. 0.000391187

    Block 178 cell size :
        i : 0.000291889 .. 0.000291889
        j : 0.000416182 .. 0.000416182
        k : 0.000392136 .. 0.000392136

    Block 179 cell size :
        i : 0.000291408 .. 0.000291408
        j : 0.000415987 .. 0.000415987
        k : 0.000392801 .. 0.000392801

    Block 180 cell size :
        i : 0.000290835 .. 0.000290835
        j : 0.000415807 .. 0.000415807
        k : 0.000393185 .. 0.000393185

    Block 181 cell size :
        i : 0.000290171 .. 0.000290171
        j : 0.000415599 .. 0.000415599
        k : 0.000393288 .. 0.000393288

    Block 182 cell size :
        i : 0.000289421 .. 0.000289421
        j : 0.000415402 .. 0.000415402
        k : 0.000393109 .. 0.000393109

    Block 183 cell size :
        i : 0.000288582 .. 0.000288582
        j : 0.000415199 .. 0.000415199
        k : 0.000392649 .. 0.000392649

    Block 184 cell size :
        i : 0.000287656 .. 0.000287656
        j : 0.000414987 .. 0.000414987
        k : 0.000391908 .. 0.000391908

    Block 185 cell size :
        i : 0.000286638 .. 0.000286638
        j : 0.000414763 .. 0.000414763
        k : 0.000390887 .. 0.000390887

    Block 186 cell size :
        i : 0.000285534 .. 0.000285534
        j : 0.000414556 .. 0.000414556
        k : 0.000389584 .. 0.000389584

    Block 187 cell size :
        i : 0.000284342 .. 0.000284342
        j : 0.000414323 .. 0.000414323
        k : 0.000387998 .. 0.000387998

    Block 188 cell size :
        i : 0.000283062 .. 0.000283062
        j : 0.000414093 .. 0.000414093
        k : 0.000386135 .. 0.000386135

    Block 189 cell size :
        i : 0.000281695 .. 0.000281695
        j : 0.000413858 .. 0.000413858
        k : 0.000383988 .. 0.000383988

    Block 190 cell size :
        i : 0.000280241 .. 0.000280241
        j : 0.000413617 .. 0.000413617
        k : 0.000381563 .. 0.000381563

    Block 191 cell size :
        i : 0.0002787 .. 0.0002787
        j : 0.000413384 .. 0.000413384
        k : 0.000378856 .. 0.000378856

    Block 192 cell size :
        i : 0.000277075 .. 0.000277075
        j : 0.000413126 .. 0.000413126
        k : 0.000375872 .. 0.000375872

    Block 193 cell size :
        i : 0.000275362 .. 0.000275362
        j : 0.000412882 .. 0.000412882
        k : 0.000372604 .. 0.000372604

    Block 194 cell size :
        i : 0.000273568 .. 0.000273568
        j : 0.000412623 .. 0.000412623
        k : 0.000369058 .. 0.000369058

    Block 195 cell size :
        i : 0.000271687 .. 0.000271687
        j : 0.000412353 .. 0.000412353
        k : 0.000365235 .. 0.000365235

    Block 196 cell size :
        i : 0.000269725 .. 0.000269725
        j : 0.000412096 .. 0.000412096
        k : 0.000361128 .. 0.000361128

    Block 197 cell size :
        i : 0.00026768 .. 0.00026768
        j : 0.000411824 .. 0.000411824
        k : 0.000356744 .. 0.000356744

    Block 198 cell size :
        i : 0.000265576 .. 0.000265576
        j : 0.000411535 .. 0.000411535
        k : 0.00035213 .. 0.00035213

    Block 199 cell size :
        i : 0.00026358 .. 0.00026358
        j : 0.000411144 .. 0.000411144
        k : 0.000347534 .. 0.000347534

    Block 200 cell size :
        i : 0.000261715 .. 0.000261715
        j : 0.00041076 .. 0.00041076
        k : 0.000343012 .. 0.000343012

    Block 201 cell size :
        i : 0.000259982 .. 0.000259982
        j : 0.000410381 .. 0.000410381
        k : 0.000338559 .. 0.000338559

    Block 202 cell size :
        i : 0.000258379 .. 0.000258379
        j : 0.000410035 .. 0.000410035
        k : 0.000334174 .. 0.000334174

    Block 203 cell size :
        i : 0.000256905 .. 0.000256905
        j : 0.00040969 .. 0.00040969
        k : 0.000329854 .. 0.000329854

    Block 204 cell size :
        i : 0.000255562 .. 0.000255562
        j : 0.000409379 .. 0.000409379
        k : 0.000325605 .. 0.000325605

    Block 205 cell size :
        i : 0.000254345 .. 0.000254345
        j : 0.000409077 .. 0.000409077
        k : 0.00032142 .. 0.00032142

    Block 206 cell size :
        i : 0.000253257 .. 0.000253257
        j : 0.0004088 .. 0.0004088
        k : 0.000317304 .. 0.000317304

    Block 207 cell size :
        i : 0.000252296 .. 0.000252296
        j : 0.000408548 .. 0.000408548
        k : 0.000313255 .. 0.000313255

    Block 208 cell size :
        i : 0.000251462 .. 0.000251462
        j : 0.000408303 .. 0.000408303
        k : 0.00030927 .. 0.00030927

    Block 209 cell size :
        i : 0.000250753 .. 0.000250753
        j : 0.000408073 .. 0.000408073
        k : 0.000305349 .. 0.000305349

    Block 210 cell size :
        i : 0.00025017 .. 0.00025017
        j : 0.000407871 .. 0.000407871
        k : 0.000301498 .. 0.000301498

    Block 211 cell size :
        i : 0.000249713 .. 0.000249713
        j : 0.000407689 .. 0.000407689
        k : 0.000297709 .. 0.000297709

    Block 212 cell size :
        i : 0.00024938 .. 0.00024938
        j : 0.000407509 .. 0.000407509
        k : 0.000293986 .. 0.000293986

    Block 213 cell size :
        i : 0.000249172 .. 0.000249172
        j : 0.000407371 .. 0.000407371
        k : 0.000290328 .. 0.000290328

    Block 214 cell size :
        i : 0.000249088 .. 0.000249088
        j : 0.000407239 .. 0.000407239
        k : 0.000286736 .. 0.000286736

    Block 215 cell size :
        i : 0.000249126 .. 0.000249126
        j : 0.000407127 .. 0.000407127
        k : 0.000283203 .. 0.000283203

    Block 216 cell size :
        i : 0.000249287 .. 0.000249287
        j : 0.000407035 .. 0.000407035
        k : 0.000279737 .. 0.000279737

    Block 217 cell size :
        i : 0.000249576 .. 0.000249576
        j : 0.000406968 .. 0.000406968
        k : 0.000276335 .. 0.000276335

    Block 218 cell size :
        i : 0.000249983 .. 0.000249983
        j : 0.000406907 .. 0.000406907
        k : 0.000272995 .. 0.000272995

    Block 219 cell size :
        i : 0.000250516 .. 0.000250516
        j : 0.00040687 .. 0.00040687
        k : 0.000269723 .. 0.000269723

    Block 220 cell size :
        i : 0.000251169 .. 0.000251169
        j : 0.000406855 .. 0.000406855
        k : 0.000266509 .. 0.000266509

    Block 221 cell size :
        i : 0.000251947 .. 0.000251947
        j : 0.000406852 .. 0.000406852
        k : 0.000263359 .. 0.000263359

    Block 222 cell size :
        i : 0.000252849 .. 0.000252849
        j : 0.000406876 .. 0.000406876
        k : 0.000260273 .. 0.000260273

    Block 223 cell size :
        i : 0.00025387 .. 0.00025387
        j : 0.000406926 .. 0.000406926
        k : 0.000257254 .. 0.000257254

    Block 224 cell size :
        i : 0.000255018 .. 0.000255018
        j : 0.000406973 .. 0.000406973
        k : 0.000254294 .. 0.000254294

    Block 225 cell size :
        i : 0.000256287 .. 0.000256287
        j : 0.000407062 .. 0.000407062
        k : 0.000251398 .. 0.000251398

    Block 226 cell size :
        i : 0.000257681 .. 0.000257681
        j : 0.000407148 .. 0.000407148
        k : 0.000248567 .. 0.000248567

    Block 227 cell size :
        i : 0.0002592 .. 0.0002592
        j : 0.000407267 .. 0.000407267
        k : 0.000245797 .. 0.000245797

    Block 228 cell size :
        i : 0.00026084 .. 0.00026084
        j : 0.000407411 .. 0.000407411
        k : 0.000243095 .. 0.000243095

    Block 229 cell size :
        i : 0.000262603 .. 0.000262603
        j : 0.00040756 .. 0.00040756
        k : 0.000240457 .. 0.000240457

    Block 230 cell size :
        i : 0.000264493 .. 0.000264493
        j : 0.000407726 .. 0.000407726
        k : 0.000237884 .. 0.000237884

    Block 231 cell size :
        i : 0.000266511 .. 0.000266511
        j : 0.00040793 .. 0.00040793
        k : 0.000235374 .. 0.000235374

    Block 232 cell size :
        i : 0.000268651 .. 0.000268651
        j : 0.000408135 .. 0.000408135
        k : 0.000232934 .. 0.000232934

    Block 233 cell size :
        i : 0.00027092 .. 0.00027092
        j : 0.000408379 .. 0.000408379
        k : 0.000230555 .. 0.000230555

    Block 234 cell size :
        i : 0.000273315 .. 0.000273315
        j : 0.000408614 .. 0.000408614
        k : 0.000228248 .. 0.000228248

    Block 235 cell size :
        i : 0.000275833 .. 0.000275833
        j : 0.0004089 .. 0.0004089
        k : 0.000226008 .. 0.000226008

    Block 236 cell size :
        i : 0.000278483 .. 0.000278483
        j : 0.000409178 .. 0.000409178
        k : 0.000223833 .. 0.000223833

    Block 237 cell size :
        i : 0.000281257 .. 0.000281257
        j : 0.000409493 .. 0.000409493
        k : 0.000221731 .. 0.000221731

    Block 238 cell size :
        i : 0.000284162 .. 0.000284162
        j : 0.00040981 .. 0.00040981
        k : 0.000219697 .. 0.000219697

    Block 239 cell size :
        i : 0.000287195 .. 0.000287195
        j : 0.000410167 .. 0.000410167
        k : 0.000217738 .. 0.000217738

    Block 240 cell size :
        i : 0.000290362 .. 0.000290362
        j : 0.000410531 .. 0.000410531
        k : 0.00021585 .. 0.00021585

    Block 241 cell size :
        i : 0.000293652 .. 0.000293652
        j : 0.000410916 .. 0.000410916
        k : 0.000214034 .. 0.000214034

    Block 242 cell size :
        i : 0.000297075 .. 0.000297075
        j : 0.000411331 .. 0.000411331
        k : 0.000212295 .. 0.000212295

    Block 243 cell size :
        i : 0.000300629 .. 0.000300629
        j : 0.000411747 .. 0.000411747
        k : 0.00021063 .. 0.00021063

    Block 244 cell size :
        i : 0.000304186 .. 0.000304186
        j : 0.0004122 .. 0.0004122
        k : 0.000209031 .. 0.000209031

    Block 245 cell size :
        i : 0.000307558 .. 0.000307558
        j : 0.000412666 .. 0.000412666
        k : 0.000207491 .. 0.000207491

    Block 246 cell size :
        i : 0.000310752 .. 0.000310752
        j : 0.000413104 .. 0.000413104
        k : 0.000206 .. 0.000206

    Block 247 cell size :
        i : 0.000313765 .. 0.000313765
        j : 0.000413544 .. 0.000413544
        k : 0.000204565 .. 0.000204565

    Block 248 cell size :
        i : 0.000316599 .. 0.000316599
        j : 0.000413953 .. 0.000413953
        k : 0.000203179 .. 0.000203179

    Block 249 cell size :
        i : 0.000319248 .. 0.000319248
        j : 0.000414361 .. 0.000414361
        k : 0.000201847 .. 0.000201847

    Block 250 cell size :
        i : 0.000321715 .. 0.000321715
        j : 0.000414732 .. 0.000414732
        k : 0.000200561 .. 0.000200561

    Block 251 cell size :
        i : 0.000324 .. 0.000324
        j : 0.00041511 .. 0.00041511
        k : 0.000199327 .. 0.000199327

    Block 252 cell size :
        i : 0.000326105 .. 0.000326105
        j : 0.000415461 .. 0.000415461
        k : 0.000198143 .. 0.000198143

    Block 253 cell size :
        i : 0.000328025 .. 0.000328025
        j : 0.00041579 .. 0.00041579
        k : 0.000197004 .. 0.000197004

    Block 254 cell size :
        i : 0.000329763 .. 0.000329763
        j : 0.000416128 .. 0.000416128
        k : 0.000195915 .. 0.000195915

    Block 255 cell size :
        i : 0.000331317 .. 0.000331317
        j : 0.000416416 .. 0.000416416
        k : 0.000194871 .. 0.000194871

    Block 256 cell size :
        i : 0.000332686 .. 0.000332686
        j : 0.000416718 .. 0.000416718
        k : 0.000193872 .. 0.000193872

    Block 257 cell size :
        i : 0.00033387 .. 0.00033387
        j : 0.000416981 .. 0.000416981
        k : 0.000192919 .. 0.000192919

    Block 258 cell size :
        i : 0.000334875 .. 0.000334875
        j : 0.000417242 .. 0.000417242
        k : 0.000192011 .. 0.000192011

    Block 259 cell size :
        i : 0.000335691 .. 0.000335691
        j : 0.000417491 .. 0.000417491
        k : 0.000191145 .. 0.000191145

    Block 260 cell size :
        i : 0.000336323 .. 0.000336323
        j : 0.000417715 .. 0.000417715
        k : 0.000190324 .. 0.000190324

    Block 261 cell size :
        i : 0.00033677 .. 0.00033677
        j : 0.000417918 .. 0.000417918
        k : 0.000189547 .. 0.000189547

    Block 262 cell size :
        i : 0.000337035 .. 0.000337035
        j : 0.00041812 .. 0.00041812
        k : 0.00018881 .. 0.00018881

    Block 263 cell size :
        i : 0.000337113 .. 0.000337113
        j : 0.00041829 .. 0.00041829
        k : 0.000188115 .. 0.000188115

    Block 264 cell size :
        i : 0.000337008 .. 0.000337008
        j : 0.000418463 .. 0.000418463
        k : 0.000187458 .. 0.000187458

    Block 265 cell size :
        i : 0.000336714 .. 0.000336714
        j : 0.000418602 .. 0.000418602
        k : 0.000186843 .. 0.000186843

    Block 266 cell size :
        i : 0.000336236 .. 0.000336236
        j : 0.000418734 .. 0.000418734
        k : 0.000186272 .. 0.000186272

    Block 267 cell size :
        i : 0.000335574 .. 0.000335574
        j : 0.000418856 .. 0.000418856
        k : 0.00018574 .. 0.00018574

    Block 268 cell size :
        i : 0.000334724 .. 0.000334724
        j : 0.000418947 .. 0.000418947
        k : 0.000185247 .. 0.000185247

    Block 269 cell size :
        i : 0.00033369 .. 0.00033369
        j : 0.000419028 .. 0.000419028
        k : 0.000184792 .. 0.000184792

    Block 270 cell size :
        i : 0.000332471 .. 0.000332471
        j : 0.000419103 .. 0.000419103
        k : 0.000184378 .. 0.000184378

    Block 271 cell size :
        i : 0.000331063 .. 0.000331063
        j : 0.000419152 .. 0.000419152
        k : 0.000184001 .. 0.000184001

    Block 272 cell size :
        i : 0.000329473 .. 0.000329473
        j : 0.000419193 .. 0.000419193
        k : 0.000183665 .. 0.000183665

    Block 273 cell size :
        i : 0.000327695 .. 0.000327695
        j : 0.000419205 .. 0.000419205
        k : 0.00018337 .. 0.00018337

    Block 274 cell size :
        i : 0.000325732 .. 0.000325732
        j : 0.000419218 .. 0.000419218
        k : 0.00018311 .. 0.00018311

    Block 275 cell size :
        i : 0.00032358 .. 0.00032358
        j : 0.000419198 .. 0.000419198
        k : 0.000182891 .. 0.000182891

    Block 276 cell size :
        i : 0.000321244 .. 0.000321244
        j : 0.000419173 .. 0.000419173
        k : 0.00018271 .. 0.00018271

    Block 277 cell size :
        i : 0.000318723 .. 0.000318723
        j : 0.00041914 .. 0.00041914
        k : 0.000182569 .. 0.000182569

    Block 278 cell size :
        i : 0.000316014 .. 0.000316014
        j : 0.000419065 .. 0.000419065
        k : 0.000182466 .. 0.000182466

    Block 279 cell size :
        i : 0.000313121 .. 0.000313121
        j : 0.000418999 .. 0.000418999
        k : 0.000182405 .. 0.000182405

    Block 280 cell size :
        i : 0.000310039 .. 0.000310039
        j : 0.000418904 .. 0.000418904
        k : 0.000182382 .. 0.000182382

    Block 281 cell size :
        i : 0.000306771 .. 0.000306771
        j : 0.000418797 .. 0.000418797
        k : 0.0001824 .. 0.0001824

    Block 282 cell size :
        i : 0.000303317 .. 0.000303317
        j : 0.000418675 .. 0.000418675
        k : 0.000182459 .. 0.000182459

    Block 283 cell size :
        i : 0.000299674 .. 0.000299674
        j : 0.000418537 .. 0.000418537
        k : 0.000182559 .. 0.000182559

    Block 284 cell size :
        i : 0.000295847 .. 0.000295847
        j : 0.000418382 .. 0.000418382
        k : 0.000182699 .. 0.000182699

    Block 285 cell size :
        i : 0.000291835 .. 0.000291835
        j : 0.000418214 .. 0.000418214
        k : 0.000182885 .. 0.000182885

    Block 286 cell size :
        i : 0.000287637 .. 0.000287637
        j : 0.000418025 .. 0.000418025
        k : 0.000183111 .. 0.000183111

    Block 287 cell size :
        i : 0.000283247 .. 0.000283247
        j : 0.000417824 .. 0.000417824
        k : 0.000183379 .. 0.000183379

    Block 288 cell size :
        i : 0.000278674 .. 0.000278674
        j : 0.000417607 .. 0.000417607
        k : 0.000183693 .. 0.000183693

    Block 289 cell size :
        i : 0.000273935 .. 0.000273935
        j : 0.000417372 .. 0.000417372
        k : 0.000184049 .. 0.000184049

    Block 290 cell size :
        i : 0.000269258 .. 0.000269258
        j : 0.00041711 .. 0.00041711
        k : 0.000184429 .. 0.000184429

    Block 291 cell size :
        i : 0.000264711 .. 0.000264711
        j : 0.000416836 .. 0.000416836
        k : 0.000184832 .. 0.000184832

    Block 292 cell size :
        i : 0.000260295 .. 0.000260295
        j : 0.000416585 .. 0.000416585
        k : 0.00018525 .. 0.00018525

    Block 293 cell size :
        i : 0.000256006 .. 0.000256006
        j : 0.000416341 .. 0.000416341
        k : 0.00018569 .. 0.00018569

    Block 294 cell size :
        i : 0.000251848 .. 0.000251848
        j : 0.000416085 .. 0.000416085
        k : 0.000186145 .. 0.000186145

    Block 295 cell size :
        i : 0.000247818 .. 0.000247818
        j : 0.000415852 .. 0.000415852
        k : 0.000186621 .. 0.000186621

    Block 296 cell size :
        i : 0.000243918 .. 0.000243918
        j : 0.000415615 .. 0.000415615
        k : 0.000187115 .. 0.000187115

    Block 297 cell size :
        i : 0.000240144 .. 0.000240144
        j : 0.000415383 .. 0.000415383
        k : 0.000187627 .. 0.000187627

    Block 298 cell size :
        i : 0.000236502 .. 0.000236502
        j : 0.000415179 .. 0.000415179
        k : 0.000188157 .. 0.000188157

    Block 299 cell size :
        i : 0.000232989 .. 0.000232989
        j : 0.000414952 .. 0.000414952
        k : 0.000188703 .. 0.000188703

    Block 300 cell size :
        i : 0.000229605 .. 0.000229605
        j : 0.000414751 .. 0.000414751
        k : 0.000189267 .. 0.000189267

    Block 301 cell size :
        i : 0.00022635 .. 0.00022635
        j : 0.000414549 .. 0.000414549
        k : 0.000189849 .. 0.000189849

    Block 302 cell size :
        i : 0.000223225 .. 0.000223225
        j : 0.000414351 .. 0.000414351
        k : 0.000190444 .. 0.000190444

    Block 303 cell size :
        i : 0.000220228 .. 0.000220228
        j : 0.000414166 .. 0.000414166
        k : 0.000191059 .. 0.000191059

    Block 304 cell size :
        i : 0.00021736 .. 0.00021736
        j : 0.000413982 .. 0.000413982
        k : 0.000191691 .. 0.000191691

    Block 305 cell size :
        i : 0.00021462 .. 0.00021462
        j : 0.000413803 .. 0.000413803
        k : 0.000192337 .. 0.000192337

    Block 306 cell size :
        i : 0.000212012 .. 0.000212012
        j : 0.000413637 .. 0.000413637
        k : 0.000193001 .. 0.000193001

    Block 307 cell size :
        i : 0.000209531 .. 0.000209531
        j : 0.000413471 .. 0.000413471
        k : 0.000193679 .. 0.000193679

    Block 308 cell size :
        i : 0.000207182 .. 0.000207182
        j : 0.000413315 .. 0.000413315
        k : 0.000194373 .. 0.000194373

    Block 309 cell size :
        i : 0.000204959 .. 0.000204959
        j : 0.000413164 .. 0.000413164
        k : 0.000195084 .. 0.000195084

    Block 310 cell size :
        i : 0.000202868 .. 0.000202868
        j : 0.000413013 .. 0.000413013
        k : 0.000195812 .. 0.000195812

    Block 311 cell size :
        i : 0.000200904 .. 0.000200904
        j : 0.000412881 .. 0.000412881
        k : 0.000196553 .. 0.000196553

    Block 312 cell size :
        i : 0.00019907 .. 0.00019907
        j : 0.000412747 .. 0.000412747
        k : 0.00019731 .. 0.00019731

    Block 313 cell size :
        i : 0.000197365 .. 0.000197365
        j : 0.000412616 .. 0.000412616
        k : 0.00019808 .. 0.00019808

    Block 314 cell size :
        i : 0.000195789 .. 0.000195789
        j : 0.000412495 .. 0.000412495
        k : 0.000198867 .. 0.000198867

    Block 315 cell size :
        i : 0.000194341 .. 0.000194341
        j : 0.000412383 .. 0.000412383
        k : 0.000199669 .. 0.000199669

    Block 316 cell size :
        i : 0.000193022 .. 0.000193022
        j : 0.000412282 .. 0.000412282
        k : 0.000200484 .. 0.000200484

    Block 317 cell size :
        i : 0.000191834 .. 0.000191834
        j : 0.000412167 .. 0.000412167
        k : 0.000201314 .. 0.000201314

    Block 318 cell size :
        i : 0.000190774 .. 0.000190774
        j : 0.000412082 .. 0.000412082
        k : 0.00020216 .. 0.00020216

    Block 319 cell size :
        i : 0.000189843 .. 0.000189843
        j : 0.000411991 .. 0.000411991
        k : 0.000203021 .. 0.000203021

    Block 320 cell size :
        i : 0.000189042 .. 0.000189042
        j : 0.000411894 .. 0.000411894
        k : 0.000203893 .. 0.000203893

    Block 321 cell size :
        i : 0.00018837 .. 0.00018837
        j : 0.00041183 .. 0.00041183
        k : 0.000204782 .. 0.000204782

    Block 322 cell size :
        i : 0.000187828 .. 0.000187828
        j : 0.000411752 .. 0.000411752
        k : 0.000205684 .. 0.000205684

    Block 323 cell size :
        i : 0.000187412 .. 0.000187412
        j : 0.00041169 .. 0.00041169
        k : 0.0002066 .. 0.0002066

    Block 324 cell size :
        i : 0.000187127 .. 0.000187127
        j : 0.000411631 .. 0.000411631
        k : 0.000207532 .. 0.000207532

    Block 325 cell size :
        i : 0.000186971 .. 0.000186971
        j : 0.000411577 .. 0.000411577
        k : 0.000208478 .. 0.000208478

    Block 326 cell size :
        i : 0.000186941 .. 0.000186941
        j : 0.000411527 .. 0.000411527
        k : 0.000209435 .. 0.000209435

    Block 327 cell size :
        i : 0.000187047 .. 0.000187047
        j : 0.000411485 .. 0.000411485
        k : 0.000210408 .. 0.000210408

    Block 328 cell size :
        i : 0.000187276 .. 0.000187276
        j : 0.000411457 .. 0.000411457
        k : 0.000211397 .. 0.000211397

    Block 329 cell size :
        i : 0.000187636 .. 0.000187636
        j : 0.000411422 .. 0.000411422
        k : 0.000212397 .. 0.000212397

    Block 330 cell size :
        i : 0.000188124 .. 0.000188124
        j : 0.000411402 .. 0.000411402
        k : 0.00021341 .. 0.00021341

    Block 331 cell size :
        i : 0.000188743 .. 0.000188743
        j : 0.000411384 .. 0.000411384
        k : 0.000214438 .. 0.000214438

    Block 332 cell size :
        i : 0.000189491 .. 0.000189491
        j : 0.000411368 .. 0.000411368
        k : 0.00021548 .. 0.00021548

    Block 333 cell size :
        i : 0.000190367 .. 0.000190367
        j : 0.000411366 .. 0.000411366
        k : 0.000216537 .. 0.000216537

    Block 334 cell size :
        i : 0.00019137 .. 0.00019137
        j : 0.000411369 .. 0.000411369
        k : 0.000217607 .. 0.000217607

    Block 335 cell size :
        i : 0.000192508 .. 0.000192508
        j : 0.00041137 .. 0.00041137
        k : 0.000218691 .. 0.000218691

    Block 336 cell size :
        i : 0.000193768 .. 0.000193768
        j : 0.000411392 .. 0.000411392
        k : 0.000219789 .. 0.000219789

    Block 337 cell size :
        i : 0.000195163 .. 0.000195163
        j : 0.000411405 .. 0.000411405
        k : 0.0002209 .. 0.0002209

    Block 338 cell size :
        i : 0.000196685 .. 0.000196685
        j : 0.000411427 .. 0.000411427
        k : 0.000222026 .. 0.000222026

    Block 339 cell size :
        i : 0.000198335 .. 0.000198335
        j : 0.00041146 .. 0.00041146
        k : 0.000223166 .. 0.000223166

    Block 340 cell size :
        i : 0.000200115 .. 0.000200115
        j : 0.000411498 .. 0.000411498
        k : 0.000224316 .. 0.000224316

    Block 341 cell size :
        i : 0.000202024 .. 0.000202024
        j : 0.000411542 .. 0.000411542
        k : 0.000225483 .. 0.000225483

    Block 342 cell size :
        i : 0.000204063 .. 0.000204063
        j : 0.000411586 .. 0.000411586
        k : 0.000226666 .. 0.000226666

    Block 343 cell size :
        i : 0.00020623 .. 0.00020623
        j : 0.000411638 .. 0.000411638
        k : 0.000227861 .. 0.000227861

    Block 344 cell size :
        i : 0.000208527 .. 0.000208527
        j : 0.000411706 .. 0.000411706
        k : 0.00022907 .. 0.00022907

    Block 345 cell size :
        i : 0.000210952 .. 0.000210952
        j : 0.000411765 .. 0.000411765
        k : 0.000230292 .. 0.000230292

    Block 346 cell size :
        i : 0.000213505 .. 0.000213505
        j : 0.000411839 .. 0.000411839
        k : 0.000231529 .. 0.000231529

    Block 347 cell size :
        i : 0.000216189 .. 0.000216189
        j : 0.000411918 .. 0.000411918
        k : 0.000232784 .. 0.000232784

    Block 348 cell size :
        i : 0.000219001 .. 0.000219001
        j : 0.000412 .. 0.000412
        k : 0.000234046 .. 0.000234046

    Block 349 cell size :
        i : 0.000221943 .. 0.000221943
        j : 0.000412098 .. 0.000412098
        k : 0.000235326 .. 0.000235326

    Block 350 cell size :
        i : 0.000225014 .. 0.000225014
        j : 0.000412183 .. 0.000412183
        k : 0.000236621 .. 0.000236621

    Block 351 cell size :
        i : 0.000228213 .. 0.000228213
        j : 0.000412283 .. 0.000412283
        k : 0.000237932 .. 0.000237932

    Block 352 cell size :
        i : 0.000231544 .. 0.000231544
        j : 0.000412393 .. 0.000412393
        k : 0.000239255 .. 0.000239255

    Block 353 cell size :
        i : 0.000235004 .. 0.000235004
        j : 0.000412504 .. 0.000412504
        k : 0.000240594 .. 0.000240594

    Block 354 cell size :
        i : 0.00023859 .. 0.00023859
        j : 0.000412624 .. 0.000412624
        k : 0.000241946 .. 0.000241946

    Block 355 cell size :
        i : 0.000242307 .. 0.000242307
        j : 0.000412751 .. 0.000412751
        k : 0.000243314 .. 0.000243314

    Block 356 cell size :
        i : 0.000246152 .. 0.000246152
        j : 0.000412878 .. 0.000412878
        k : 0.000244697 .. 0.000244697

    Block 357 cell size :
        i : 0.000250129 .. 0.000250129
        j : 0.000413004 .. 0.000413004
        k : 0.000246094 .. 0.000246094

    Block 358 cell size :
        i : 0.000250127 .. 0.000250127
        j : 0.000312301 .. 0.000312301
        k : 0.000246096 .. 0.000246096

    Block 359 cell size :
        i : 0.000250127 .. 0.000250127
        j : 0.000312291 .. 0.000312291
        k : 0.000246093 .. 0.000246093

    Block 360 cell size :
        i : 0.000250127 .. 0.000250127
        j : 0.000312301 .. 0.000312301
        k : 0.000246093 .. 0.000246093

    Block 361 cell size :
        i : 0.000250129 .. 0.000250129
        j : 0.000312287 .. 0.000312287
        k : 0.000246093 .. 0.000246093

    Block 362 cell size :
        i : 0.000250129 .. 0.000250129
        j : 0.000312301 .. 0.000312301
        k : 0.000246093 .. 0.000246093

    Block 363 cell size :
        i : 0.000250127 .. 0.000250127
        j : 0.000312292 .. 0.000312292
        k : 0.000246093 .. 0.000246093

    Block 364 cell size :
        i : 0.000250128 .. 0.000250128
        j : 0.000312301 .. 0.000312301
        k : 0.000246093 .. 0.000246093

    Block 365 cell size :
        i : 0.000250129 .. 0.000250129
        j : 0.000312287 .. 0.000312287
        k : 0.000246093 .. 0.000246093

    Block 366 cell size :
        i : 0.00025013 .. 0.00025013
        j : 0.000312301 .. 0.000312301
        k : 0.000246096 .. 0.000246096

    Block 367 cell size :
        i : 0.000250127 .. 0.000250127
        j : 0.000312291 .. 0.000312291
        k : 0.000246093 .. 0.000246093

    Block 368 cell size :
        i : 0.000250127 .. 0.000250127
        j : 0.000312292 .. 0.000312292
        k : 0.000246094 .. 0.000246094

    Block 369 cell size :
        i : 0.000250129 .. 0.000250129
        j : 0.000312295 .. 0.000312295
        k : 0.000246093 .. 0.000246093

    Block 370 cell size :
        i : 0.000250129 .. 0.000250129
        j : 0.000312292 .. 0.000312292
        k : 0.000246093 .. 0.000246093

    Block 371 cell size :
        i : 0.000250127 .. 0.000250127
        j : 0.000312301 .. 0.000312301
        k : 0.000246093 .. 0.000246093

    Block 372 cell size :
        i : 0.000250127 .. 0.000250127
        j : 0.000312292 .. 0.000312292
        k : 0.000246093 .. 0.000246093

    Block 373 cell size :
        i : 0.000250127 .. 0.000250127
        j : 0.000312301 .. 0.000312301
        k : 0.000246096 .. 0.000246096

    Block 374 cell size :
        i : 0.000250129 .. 0.000250129
        j : 0.000312285 .. 0.000312285
        k : 0.000246093 .. 0.000246093

    Block 375 cell size :
        i : 0.000250128 .. 0.000250128
        j : 0.000312301 .. 0.000312301
        k : 0.000246093 .. 0.000246093

    Block 376 cell size :
        i : 0.000250127 .. 0.000250127
        j : 0.000312292 .. 0.000312292
        k : 0.000246093 .. 0.000246093

    Block 377 cell size :
        i : 0.000250128 .. 0.000250128
        j : 0.000312301 .. 0.000312301
        k : 0.000246093 .. 0.000246093

    Block 378 cell size :
        i : 0.000250129 .. 0.000250129
        j : 0.000312287 .. 0.000312287
        k : 0.000246093 .. 0.000246093

    Block 379 cell size :
        i : 0.000250129 .. 0.000250129
        j : 0.000312292 .. 0.000312292
        k : 0.000246094 .. 0.000246094

    Block 380 cell size :
        i : 0.000250127 .. 0.000250127
        j : 0.000312301 .. 0.000312301
        k : 0.000246093 .. 0.000246093

    Block 381 cell size :
        i : 0.000250127 .. 0.000250127
        j : 0.000312292 .. 0.000312292
        k : 0.000246096 .. 0.000246096

    Block 382 cell size :
        i : 0.000250129 .. 0.000250129
        j : 0.000312294 .. 0.000312294
        k : 0.000246093 .. 0.000246093

    Block 383 cell size :
        i : 0.000250129 .. 0.000250129
        j : 0.000312292 .. 0.000312292
        k : 0.000246093 .. 0.000246093

    Block 384 cell size :
        i : 0.000250127 .. 0.000250127
        j : 0.000312301 .. 0.000312301
        k : 0.000246093 .. 0.000246093

    Block 385 cell size :
        i : 0.000250127 .. 0.000250127
        j : 0.000312292 .. 0.000312292
        k : 0.000246093 .. 0.000246093

    Block 386 cell size :
        i : 0.00025013 .. 0.00025013
        j : 0.000312295 .. 0.000312295
        k : 0.000246093 .. 0.000246093

    Block 387 cell size :
        i : 0.000250129 .. 0.000250129
        j : 0.000312292 .. 0.000312292
        k : 0.000246093 .. 0.000246093

    Block 388 cell size :
        i : 0.000250128 .. 0.000250128
        j : 0.000312301 .. 0.000312301
        k : 0.000246096 .. 0.000246096

    Block 389 cell size :
        i : 0.000250127 .. 0.000250127
        j : 0.000312291 .. 0.000312291
        k : 0.000246093 .. 0.000246093

    Block 390 cell size :
        i : 0.000250127 .. 0.000250127
        j : 0.000312292 .. 0.000312292
        k : 0.000246094 .. 0.000246094

    Block 391 cell size :
        i : 0.000250129 .. 0.000250129
        j : 0.000312295 .. 0.000312295
        k : 0.000246093 .. 0.000246093

    Block 392 cell size :
        i : 0.000250127 .. 0.000250127
        j : 0.000312292 .. 0.000312292
        k : 0.000246093 .. 0.000246093

    Block 393 cell size :
        i : 0.000250127 .. 0.000250127
        j : 0.000312301 .. 0.000312301
        k : 0.000246093 .. 0.000246093

    Block 394 cell size :
        i : 0.000250127 .. 0.000250127
        j : 0.000312292 .. 0.000312292
        k : 0.000246093 .. 0.000246093

    Block 395 cell size :
        i : 0.000250129 .. 0.000250129
        j : 0.000312295 .. 0.000312295
        k : 0.000246093 .. 0.000246093

    Block 396 cell size :
        i : 0.000250129 .. 0.000250129
        j : 0.000312291 .. 0.000312291
        k : 0.000246093 .. 0.000246093

    Block 397 cell size :
        i : 0.000200747 .. 0.000200747
        j : 0.00032051 .. 0.00032051
        k : 0.000246095 .. 0.000246095

    Block 398 cell size :
        i : 0.000398026 .. 0.000375006
        j : 0.00032051 .. 0.00032051
        k : 0.000123045 .. 0.000123045

    Block 399 cell size :
        i : 0.000200747 .. 0.000200747
        j : 0.00032052 .. 0.00032052
        k : 0.000246095 .. 0.000246095

    Block 400 cell size :
        i : 0.000398026 .. 0.000375006
        j : 0.00032052 .. 0.00032052
        k : 0.000123045 .. 0.000123045

    Block 401 cell size :
        i : 0.000200747 .. 0.000200747
        j : 0.00032051 .. 0.00032051
        k : 0.000246095 .. 0.000246095

    Block 402 cell size :
        i : 0.000398026 .. 0.000375006
        j : 0.00032051 .. 0.00032051
        k : 0.000123045 .. 0.000123045

    Block 403 cell size :
        i : 0.000200747 .. 0.000200747
        j : 0.00032051 .. 0.00032051
        k : 0.000246095 .. 0.000246095

    Block 404 cell size :
        i : 0.000398026 .. 0.000375006
        j : 0.00032051 .. 0.00032051
        k : 0.000123045 .. 0.000123045

    Block 405 cell size :
        i : 0.000200747 .. 0.000200747
        j : 0.00032051 .. 0.00032051
        k : 0.000246095 .. 0.000246095

    Block 406 cell size :
        i : 0.000398026 .. 0.000375006
        j : 0.00032051 .. 0.00032051
        k : 0.000123045 .. 0.000123045

    Block 407 cell size :
        i : 0.000200747 .. 0.000200747
        j : 0.00032052 .. 0.00032052
        k : 0.000246095 .. 0.000246095

    Block 408 cell size :
        i : 0.000398026 .. 0.000375006
        j : 0.00032052 .. 0.00032052
        k : 0.000123045 .. 0.000123045

    Block 409 cell size :
        i : 0.000200747 .. 0.000200747
        j : 0.00032051 .. 0.00032051
        k : 0.000246095 .. 0.000246095

    Block 410 cell size :
        i : 0.000398026 .. 0.000375006
        j : 0.00032051 .. 0.00032051
        k : 0.000123045 .. 0.000123045

    Block 411 cell size :
        i : 0.000200747 .. 0.000200747
        j : 0.00032051 .. 0.00032051
        k : 0.000246095 .. 0.000246095

    Block 412 cell size :
        i : 0.000398026 .. 0.000375006
        j : 0.00032051 .. 0.00032051
        k : 0.000123045 .. 0.000123045

    Block 413 cell size :
        i : 0.000200747 .. 0.000200747
        j : 0.00032052 .. 0.00032052
        k : 0.000246095 .. 0.000246095

    Block 414 cell size :
        i : 0.000398026 .. 0.000375006
        j : 0.00032052 .. 0.00032052
        k : 0.000123045 .. 0.000123045

    Block 415 cell size :
        i : 0.000200747 .. 0.000200747
        j : 0.00032051 .. 0.00032051
        k : 0.000246095 .. 0.000246095

    Block 416 cell size :
        i : 0.000398026 .. 0.000375006
        j : 0.00032051 .. 0.00032051
        k : 0.000123045 .. 0.000123045

    Block 417 cell size :
        i : 0.000200747 .. 0.000200747
        j : 0.00032051 .. 0.00032051
        k : 0.000246095 .. 0.000246095

    Block 418 cell size :
        i : 0.000398026 .. 0.000375006
        j : 0.00032051 .. 0.00032051
        k : 0.000123045 .. 0.000123045

    Block 419 cell size :
        i : 0.000200747 .. 0.000200747
        j : 0.00032051 .. 0.00032051
        k : 0.000246095 .. 0.000246095

    Block 420 cell size :
        i : 0.000398026 .. 0.000375006
        j : 0.00032051 .. 0.00032051
        k : 0.000123045 .. 0.000123045

    Block 421 cell size :
        i : 0.000200747 .. 0.000200747
        j : 0.00032052 .. 0.00032052
        k : 0.000246095 .. 0.000246095

    Block 422 cell size :
        i : 0.000398026 .. 0.000375006
        j : 0.00032052 .. 0.00032052
        k : 0.000123045 .. 0.000123045

    Block 423 cell size :
        i : 0.000200747 .. 0.000200747
        j : 0.00032051 .. 0.00032051
        k : 0.000246095 .. 0.000246095

    Block 424 cell size :
        i : 0.000398026 .. 0.000375006
        j : 0.00032051 .. 0.00032051
        k : 0.000123045 .. 0.000123045

    Block 425 cell size :
        i : 0.000200747 .. 0.000200747
        j : 0.00032051 .. 0.00032051
        k : 0.000246095 .. 0.000246095

    Block 426 cell size :
        i : 0.000398026 .. 0.000375006
        j : 0.00032051 .. 0.00032051
        k : 0.000123045 .. 0.000123045

    Block 427 cell size :
        i : 0.000200747 .. 0.000200747
        j : 0.00032052 .. 0.00032052
        k : 0.000246095 .. 0.000246095

    Block 428 cell size :
        i : 0.000398026 .. 0.000375006
        j : 0.00032052 .. 0.00032052
        k : 0.000123045 .. 0.000123045

    Block 429 cell size :
        i : 0.000200747 .. 0.000200747
        j : 0.00032051 .. 0.00032051
        k : 0.000246095 .. 0.000246095

    Block 430 cell size :
        i : 0.000398026 .. 0.000375006
        j : 0.00032051 .. 0.00032051
        k : 0.000123045 .. 0.000123045

    Block 431 cell size :
        i : 0.000200747 .. 0.000200747
        j : 0.00032051 .. 0.00032051
        k : 0.000246095 .. 0.000246095

    Block 432 cell size :
        i : 0.000398026 .. 0.000375006
        j : 0.00032051 .. 0.00032051
        k : 0.000123045 .. 0.000123045

    Block 433 cell size :
        i : 0.000200747 .. 0.000200747
        j : 0.00032051 .. 0.00032051
        k : 0.000246095 .. 0.000246095

    Block 434 cell size :
        i : 0.000398026 .. 0.000375006
        j : 0.00032051 .. 0.00032051
        k : 0.000123045 .. 0.000123045

    Block 435 cell size :
        i : 0.000200747 .. 0.000200747
        j : 0.00032052 .. 0.00032052
        k : 0.000246095 .. 0.000246095

    Block 436 cell size :
        i : 0.000398026 .. 0.000375006
        j : 0.00032052 .. 0.00032052
        k : 0.000123045 .. 0.000123045

    Block 437 cell size :
        i : 0.000200781 .. 0.000200781
        j : 0.00032051 .. 0.00032051
        k : 0.00024629 .. 0.00024629

    Block 438 cell size :
        i : 0.000398175 .. 0.000375147
        j : 0.000320511 .. 0.000320511
        k : 0.000123145 .. 0.000123145

    Block 439 cell size :
        i : 0.000200848 .. 0.000200848
        j : 0.00032051 .. 0.00032051
        k : 0.000246687 .. 0.000246688

    Block 440 cell size :
        i : 0.000398474 .. 0.00037543
        j : 0.000320513 .. 0.000320513
        k : 0.000123343 .. 0.000123342

    Block 441 cell size :
        i : 0.00020095 .. 0.00020095
        j : 0.00032051 .. 0.00032051
        k : 0.000247277 .. 0.000247278

    Block 442 cell size :
        i : 0.000398923 .. 0.000375855
        j : 0.000320516 .. 0.000320516
        k : 0.00012364 .. 0.00012364

    Block 443 cell size :
        i : 0.000201085 .. 0.000201085
        j : 0.000320521 .. 0.000320521
        k : 0.000248067 .. 0.000248068

    Block 444 cell size :
        i : 0.000399526 .. 0.000376425
        j : 0.00032053 .. 0.00032053
        k : 0.000124035 .. 0.000124035

    Block 445 cell size :
        i : 0.000201257 .. 0.000201257
        j : 0.000320511 .. 0.000320511
        k : 0.000249055 .. 0.000249055

    Block 446 cell size :
        i : 0.000400285 .. 0.000377145
        j : 0.000320526 .. 0.000320526
        k : 0.000124528 .. 0.000124527

    Block 447 cell size :
        i : 0.000201463 .. 0.000201463
        j : 0.000320511 .. 0.000320511
        k : 0.00025024 .. 0.00025024

    Block 448 cell size :
        i : 0.000401202 .. 0.000378016
        j : 0.000320533 .. 0.000320533
        k : 0.00012512 .. 0.00012512

    Block 449 cell size :
        i : 0.000201707 .. 0.000201707
        j : 0.000320522 .. 0.000320522
        k : 0.000251623 .. 0.000251623

    Block 450 cell size :
        i : 0.000402284 .. 0.000379045
        j : 0.000320552 .. 0.000320552
        k : 0.00012581 .. 0.00012581

    Block 451 cell size :
        i : 0.000201987 .. 0.000201987
        j : 0.000320512 .. 0.000320512
        k : 0.000253203 .. 0.000253203

    Block 452 cell size :
        i : 0.000403534 .. 0.000380236
        j : 0.000320551 .. 0.000320551
        k : 0.0001266 .. 0.0001266

    Block 453 cell size :
        i : 0.000202307 .. 0.000202307
        j : 0.000320513 .. 0.000320513
        k : 0.000254978 .. 0.000254977

    Block 454 cell size :
        i : 0.000404958 .. 0.000381595
        j : 0.000320562 .. 0.000320562
        k : 0.00012749 .. 0.00012749

    Block 455 cell size :
        i : 0.000202667 .. 0.000202667
        j : 0.000320513 .. 0.000320513
        k : 0.000256953 .. 0.000256953

    Block 456 cell size :
        i : 0.000406562 .. 0.00038313
        j : 0.000320575 .. 0.000320575
        k : 0.000128477 .. 0.000128477

    Block 457 cell size :
        i : 0.000203066 .. 0.000203066
        j : 0.000320524 .. 0.000320524
        k : 0.000259125 .. 0.000259125

    Block 458 cell size :
        i : 0.000408349 .. 0.000384846
        j : 0.000320598 .. 0.000320598
        k : 0.000129562 .. 0.000129562

    Block 459 cell size :
        i : 0.000203509 .. 0.000203509
        j : 0.000320515 .. 0.000320515
        k : 0.000261493 .. 0.000261492

    Block 460 cell size :
        i : 0.000410329 .. 0.000386753
        j : 0.000320603 .. 0.000320603
        k : 0.000130747 .. 0.000130747

    Block 461 cell size :
        i : 0.000203996 .. 0.000203996
        j : 0.000320516 .. 0.000320516
        k : 0.00026406 .. 0.00026406

    Block 462 cell size :
        i : 0.000412509 .. 0.000388858
        j : 0.000320619 .. 0.000320619
        k : 0.00013203 .. 0.00013203

    Block 463 cell size :
        i : 0.000204528 .. 0.000204528
        j : 0.000320527 .. 0.000320527
        k : 0.000266825 .. 0.000266825

    Block 464 cell size :
        i : 0.000414894 .. 0.00039117
        j : 0.000320647 .. 0.000320647
        k : 0.000133412 .. 0.000133413

    Block 465 cell size :
        i : 0.000205108 .. 0.000205108
        j : 0.000320517 .. 0.000320517
        k : 0.000269788 .. 0.000269788

    Block 466 cell size :
        i : 0.000417492 .. 0.000393697
        j : 0.000320656 .. 0.000320656
        k : 0.000134892 .. 0.000134892

    Block 467 cell size :
        i : 0.000205737 .. 0.000205737
        j : 0.000320519 .. 0.000320519
        k : 0.000272948 .. 0.000272947

    Block 468 cell size :
        i : 0.000420312 .. 0.000396451
        j : 0.000320675 .. 0.000320675
        k : 0.000136473 .. 0.000136473

    Block 469 cell size :
        i : 0.000206418 .. 0.000206418
        j : 0.00032052 .. 0.00032052
        k : 0.000276303 .. 0.000276303

    Block 470 cell size :
        i : 0.000423362 .. 0.00039944
        j : 0.000320697 .. 0.000320697
        k : 0.00013815 .. 0.00013815

    Block 471 cell size :
        i : 0.000207153 .. 0.000207153
        j : 0.000320531 .. 0.000320531
        k : 0.000279857 .. 0.000279858

    Block 472 cell size :
        i : 0.000426647 .. 0.000402673
        j : 0.000320729 .. 0.000320729
        k : 0.000139927 .. 0.000139927

    Block 473 cell size :
        i : 0.000207942 .. 0.000207942
        j : 0.000320522 .. 0.000320522
        k : 0.000283608 .. 0.000283608

    Block 474 cell size :
        i : 0.000430179 .. 0.000406161
        j : 0.000320743 .. 0.000320743
        k : 0.000141805 .. 0.000141805

    Block 475 cell size :
        i : 0.000209534 .. 0.000209534
        j : 0.000418817 .. 0.000418817
        k : 0.000288836 .. 0.000288836

    Block 476 cell size :
        i : 0.000435749 .. 0.000410932
        j : 0.000428839 .. 0.000428839
        k : 0.00014442 .. 0.00014442

    Block 477 cell size :
        i : 0.000211261 .. 0.000211261
        j : 0.000418502 .. 0.000418502
        k : 0.000294424 .. 0.000294424

    Block 478 cell size :
        i : 0.000442071 .. 0.000416559
        j : 0.000428436 .. 0.000428436
        k : 0.000147213 .. 0.000147213

    Block 479 cell size :
        i : 0.000213066 .. 0.000213066
        j : 0.000418197 .. 0.000418197
        k : 0.000300139 .. 0.000300139

    Block 480 cell size :
        i : 0.000449022 .. 0.000422875
        j : 0.000427969 .. 0.000427969
        k : 0.000150072 .. 0.000150072

    Block 481 cell size :
        i : 0.000214893 .. 0.000214893
        j : 0.000417908 .. 0.000417908
        k : 0.000305818 .. 0.000305818

    Block 482 cell size :
        i : 0.0004563 .. 0.000429544
        j : 0.000427428 .. 0.000427428
        k : 0.000152908 .. 0.000152908

    Block 483 cell size :
        i : 0.000216738 .. 0.000216738
        j : 0.000417641 .. 0.000417641
        k : 0.000311448 .. 0.000311448

    Block 484 cell size :
        i : 0.00046377 .. 0.000436497
        j : 0.000426912 .. 0.000426912
        k : 0.000155725 .. 0.000155725

    Block 485 cell size :
        i : 0.000218595 .. 0.000218595
        j : 0.000417357 .. 0.000417357
        k : 0.000317029 .. 0.000317029

    Block 486 cell size :
        i : 0.000471516 .. 0.000443702
        j : 0.000426412 .. 0.000426412
        k : 0.000158516 .. 0.000158516

    Block 487 cell size :
        i : 0.000220463 .. 0.000220463
        j : 0.000417095 .. 0.000417095
        k : 0.000322561 .. 0.000322561

    Block 488 cell size :
        i : 0.000479494 .. 0.00045111
        j : 0.000425903 .. 0.000425903
        k : 0.000161281 .. 0.000161281

    Block 489 cell size :
        i : 0.00022234 .. 0.00022234
        j : 0.000416852 .. 0.000416852
        k : 0.000328041 .. 0.000328041

    Block 490 cell size :
        i : 0.000487668 .. 0.000458692
        j : 0.000425412 .. 0.000425412
        k : 0.000164022 .. 0.000164022

    Block 491 cell size :
        i : 0.000224222 .. 0.000224222
        j : 0.000416601 .. 0.000416601
        k : 0.00033347 .. 0.00033347

    Block 492 cell size :
        i : 0.000496007 .. 0.000466415
        j : 0.000424934 .. 0.000424934
        k : 0.000166736 .. 0.000166736

    Block 493 cell size :
        i : 0.000226106 .. 0.000226106
        j : 0.000416372 .. 0.000416372
        k : 0.000338848 .. 0.000338848

    Block 494 cell size :
        i : 0.000504472 .. 0.000474245
        j : 0.000424459 .. 0.000424459
        k : 0.000169425 .. 0.000169425

    Block 495 cell size :
        i : 0.000227993 .. 0.000227993
        j : 0.000416142 .. 0.000416142
        k : 0.000344175 .. 0.000344175

    Block 496 cell size :
        i : 0.00051303 .. 0.000482153
        j : 0.00042399 .. 0.00042399
        k : 0.000172089 .. 0.000172089

    Block 497 cell size :
        i : 0.000229879 .. 0.000229879
        j : 0.000415932 .. 0.000415932
        k : 0.000349447 .. 0.000349447

    Block 498 cell size :
        i : 0.000521651 .. 0.000490116
        j : 0.000423538 .. 0.000423538
        k : 0.000174726 .. 0.000174726

    Block 499 cell size :
        i : 0.000231763 .. 0.000231763
        j : 0.00041572 .. 0.00041572
        k : 0.000354668 .. 0.000354668

    Block 500 cell size :
        i : 0.000530306 .. 0.000498105
        j : 0.000423075 .. 0.000423075
        k : 0.000177334 .. 0.000177334

    Block 501 cell size :
        i : 0.00023364 .. 0.00023364
        j : 0.000415515 .. 0.000415515
        k : 0.000359836 .. 0.000359836

    Block 502 cell size :
        i : 0.000538966 .. 0.0005061
        j : 0.000422648 .. 0.000422648
        k : 0.000179918 .. 0.000179918

    Block 503 cell size :
        i : 0.000235516 .. 0.000235516
        j : 0.000415339 .. 0.000415339
        k : 0.000364948 .. 0.000364948

    Block 504 cell size :
        i : 0.00054761 .. 0.000514079
        j : 0.000422201 .. 0.000422201
        k : 0.000182474 .. 0.000182474

    Block 505 cell size :
        i : 0.000237382 .. 0.000237382
        j : 0.000415155 .. 0.000415155
        k : 0.000370009 .. 0.000370009

    Block 506 cell size :
        i : 0.000556216 .. 0.000522026
        j : 0.000421789 .. 0.000421789
        k : 0.000185004 .. 0.000185004

    Block 507 cell size :
        i : 0.000239242 .. 0.000239242
        j : 0.000414984 .. 0.000414984
        k : 0.000375014 .. 0.000375014

    Block 508 cell size :
        i : 0.000564762 .. 0.000529921
        j : 0.000421366 .. 0.000421366
        k : 0.000187507 .. 0.000187507

    Block 509 cell size :
        i : 0.000241088 .. 0.000241088
        j : 0.000414823 .. 0.000414823
        k : 0.000379967 .. 0.000379967

    Block 510 cell size :
        i : 0.000573231 .. 0.000537751
        j : 0.000420957 .. 0.000420957
        k : 0.000189983 .. 0.000189983

    Block 511 cell size :
        i : 0.000242927 .. 0.000242927
        j : 0.00041467 .. 0.00041467
        k : 0.000384867 .. 0.000384867

    Block 512 cell size :
        i : 0.000581609 .. 0.000545504
        j : 0.000420564 .. 0.000420564
        k : 0.000192431 .. 0.000192431

    Block 513 cell size :
        i : 0.000244685 .. 0.000244685
        j : 0.000414511 .. 0.000414511
        k : 0.000389493 .. 0.000389493

    Block 514 cell size :
        i : 0.000589566 .. 0.000552869
        j : 0.000420182 .. 0.000420182
        k : 0.000194748 .. 0.000194748

    Block 515 cell size :
        i : 0.000246362 .. 0.000246362
        j : 0.000414377 .. 0.000414377
        k : 0.000393849 .. 0.000393849

    Block 516 cell size :
        i : 0.000597085 .. 0.000559831
        j : 0.000419828 .. 0.000419828
        k : 0.000196926 .. 0.000196926

    Block 517 cell size :
        i : 0.000247949 .. 0.000247949
        j : 0.000414235 .. 0.000414235
        k : 0.000397935 .. 0.000397935

    Block 518 cell size :
        i : 0.000604149 .. 0.000566377
        j : 0.00041949 .. 0.00041949
        k : 0.000198967 .. 0.000198967

    Block 519 cell size :
        i : 0.000249454 .. 0.000249454
        j : 0.000414112 .. 0.000414112
        k : 0.000401746 .. 0.000401746

    Block 520 cell size :
        i : 0.000610746 .. 0.000572493
        j : 0.000419171 .. 0.000419171
        k : 0.000200873 .. 0.000200873

    Block 521 cell size :
        i : 0.000250862 .. 0.000250862
        j : 0.000413988 .. 0.000413988
        k : 0.000405289 .. 0.000405289

    Block 522 cell size :
        i : 0.000616865 .. 0.000578166
        j : 0.000418855 .. 0.000418855
        k : 0.000202642 .. 0.000202642

    Block 523 cell size :
        i : 0.000252179 .. 0.000252179
        j : 0.000413873 .. 0.000413873
        k : 0.000408556 .. 0.000408556

    Block 524 cell size :
        i : 0.000622499 .. 0.000583396
        j : 0.000418568 .. 0.000418568
        k : 0.000204277 .. 0.000204277

    Block 525 cell size :
        i : 0.000253405 .. 0.000253405
        j : 0.000413774 .. 0.000413774
        k : 0.000411548 .. 0.000411548

    Block 526 cell size :
        i : 0.000627635 .. 0.000588166
        j : 0.000418285 .. 0.000418285
        k : 0.000205775 .. 0.000205775

    Block 527 cell size :
        i : 0.000254534 .. 0.000254534
        j : 0.000413677 .. 0.000413677
        k : 0.000414271 .. 0.000414271

    Block 528 cell size :
        i : 0.000632266 .. 0.000592467
        j : 0.000418021 .. 0.000418021
        k : 0.000207137 .. 0.000207137

    Block 529 cell size :
        i : 0.000255567 .. 0.000255567
        j : 0.000413601 .. 0.000413601
        k : 0.000416718 .. 0.000416718

    Block 530 cell size :
        i : 0.00063639 .. 0.000596305
        j : 0.000417786 .. 0.000417786
        k : 0.000208361 .. 0.000208361

    Block 531 cell size :
        i : 0.000256501 .. 0.000256501
        j : 0.000413523 .. 0.000413523
        k : 0.000418894 .. 0.000418894

    Block 532 cell size :
        i : 0.00064 .. 0.000599664
        j : 0.000417552 .. 0.000417552
        k : 0.000209449 .. 0.000209449

    Block 533 cell size :
        i : 0.000257333 .. 0.000257333
        j : 0.000413447 .. 0.000413447
        k : 0.000420796 .. 0.000420796

    Block 534 cell size :
        i : 0.000643093 .. 0.000602548
        j : 0.000417341 .. 0.000417341
        k : 0.0002104 .. 0.0002104

    Block 535 cell size :
        i : 0.000258068 .. 0.000258068
        j : 0.000413393 .. 0.000413393
        k : 0.000422426 .. 0.000422426

    Block 536 cell size :
        i : 0.000645664 .. 0.000604947
        j : 0.000417136 .. 0.000417136
        k : 0.000211214 .. 0.000211214

    Block 537 cell size :
        i : 0.000258702 .. 0.000258702
        j : 0.000413348 .. 0.000413348
        k : 0.00042378 .. 0.00042378

    Block 538 cell size :
        i : 0.000647715 .. 0.000606865
        j : 0.000416965 .. 0.000416965
        k : 0.000211891 .. 0.000211891

    Block 539 cell size :
        i : 0.000259234 .. 0.000259234
        j : 0.000413311 .. 0.000413311
        k : 0.000424865 .. 0.000424865

    Block 540 cell size :
        i : 0.000649239 .. 0.000608298
        j : 0.000416792 .. 0.000416792
        k : 0.000212431 .. 0.000212431

    Block 541 cell size :
        i : 0.000259664 .. 0.000259664
        j : 0.000413271 .. 0.000413271
        k : 0.000425673 .. 0.000425673

    Block 542 cell size :
        i : 0.000650245 .. 0.000609252
        j : 0.000416651 .. 0.000416651
        k : 0.000212836 .. 0.000212836

    Block 543 cell size :
        i : 0.000259996 .. 0.000259996
        j : 0.000413248 .. 0.000413248
        k : 0.000426209 .. 0.000426209

    Block 544 cell size :
        i : 0.000650726 .. 0.00060972
        j : 0.00041651 .. 0.00041651
        k : 0.000213102 .. 0.000213102

    Block 545 cell size :
        i : 0.000260229 .. 0.000260229
        j : 0.00041324 .. 0.00041324
        k : 0.000426469 .. 0.000426469

    Block 546 cell size :
        i : 0.000650685 .. 0.000609706
        j : 0.000416403 .. 0.000416403
        k : 0.000213233 .. 0.000213233

[...]

    Block 7805 cell size :
        i : 0.000287444 .. 0.000275581
        j : 0.000380728 .. 0.000380728
        k : 9.33819e-05 .. 9.33819e-05

    Block 7806 cell size :
        i : 0.00014681 .. 0.00014681
        j : 0.000394155 .. 0.000394155
        k : 0.000164387 .. 0.000164387

    Block 7807 cell size :
        i : 0.000288712 .. 0.000276768
        j : 0.000380667 .. 0.000380667
        k : 9.36389e-05 .. 9.36389e-05

    Block 7808 cell size :
        i : 0.000147374 .. 0.000147374
        j : 0.000394103 .. 0.000394103
        k : 0.000164857 .. 0.000164857

    Block 7809 cell size :
        i : 0.000290029 .. 0.000278011
        j : 0.000380583 .. 0.000380583
        k : 9.39564e-05 .. 9.39564e-05

    Block 7810 cell size :
        i : 0.000148009 .. 0.000148009
        j : 0.000394031 .. 0.000394031
        k : 0.000165471 .. 0.000165471

    Block 7811 cell size :
        i : 0.000291395 .. 0.000279309
        j : 0.000380476 .. 0.000380476
        k : 9.43348e-05 .. 9.43348e-05

    Block 7812 cell size :
        i : 0.000148711 .. 0.000148711
        j : 0.000393964 .. 0.000393964
        k : 0.000166223 .. 0.000166223

    Block 7813 cell size :
        i : 0.000292809 .. 0.00028066
        j : 0.000380374 .. 0.000380374
        k : 9.47716e-05 .. 9.47716e-05

    Block 7814 cell size :
        i : 0.000149475 .. 0.000149475
        j : 0.000393876 .. 0.000393876
        k : 0.000167117 .. 0.000167117

    Block 7815 cell size :
        i : 0.000294272 .. 0.000282067
        j : 0.000380232 .. 0.000380232
        k : 9.52709e-05 .. 9.52709e-05

    Block 7816 cell size :
        i : 0.000150308 .. 0.000150308
        j : 0.000393789 .. 0.000393789
        k : 0.000168152 .. 0.000168152

    Block 7817 cell size :
        i : 0.000295782 .. 0.000283527
        j : 0.000380086 .. 0.000380086
        k : 9.58317e-05 .. 9.58317e-05

    Block 7818 cell size :
        i : 0.000151208 .. 0.000151208
        j : 0.000393696 .. 0.000393696
        k : 0.000169329 .. 0.000169329

    Block 7819 cell size :
        i : 0.000297341 .. 0.000285042
        j : 0.00037992 .. 0.00037992
        k : 9.64486e-05 .. 9.64486e-05

    Block 7820 cell size :
        i : 0.000152177 .. 0.000152177
        j : 0.000393585 .. 0.000393585
        k : 0.000170645 .. 0.000170645

    Block 7821 cell size :
        i : 0.000298952 .. 0.000286613
        j : 0.000379742 .. 0.000379742
        k : 9.71301e-05 .. 9.71301e-05

    Block 7822 cell size :
        i : 0.000153211 .. 0.000153211
        j : 0.000393482 .. 0.000393482
        k : 0.000172101 .. 0.000172101

    Block 7823 cell size :
        i : 0.000300611 .. 0.00028824
        j : 0.000379542 .. 0.000379542
        k : 9.78738e-05 .. 9.78738e-05

    Block 7824 cell size :
        i : 0.000154311 .. 0.000154311
        j : 0.000393365 .. 0.000393365
        k : 0.0001737 .. 0.0001737

    Block 7825 cell size :
        i : 0.000302325 .. 0.000289926
        j : 0.000379323 .. 0.000379323
        k : 9.86734e-05 .. 9.86734e-05

    Block 7826 cell size :
        i : 0.00015548 .. 0.00015548
        j : 0.000393236 .. 0.000393236
        k : 0.00017544 .. 0.00017544

    Block 7827 cell size :
        i : 0.000304095 .. 0.000291673
        j : 0.000379105 .. 0.000379105
        k : 9.95377e-05 .. 9.95377e-05

    Block 7828 cell size :
        i : 0.000156717 .. 0.000156717
        j : 0.000393099 .. 0.000393099
        k : 0.000177319 .. 0.000177319

    Block 7829 cell size :
        i : 0.000305923 .. 0.000293482
        j : 0.000378851 .. 0.000378851
        k : 0.00010046 .. 0.00010046

    Block 7830 cell size :
        i : 0.000158026 .. 0.000158026
        j : 0.000392972 .. 0.000392972
        k : 0.000179339 .. 0.000179339

    Block 7831 cell size :
        i : 0.000307812 .. 0.000295358
        j : 0.00037859 .. 0.00037859
        k : 0.000101445 .. 0.000101445

    Block 7832 cell size :
        i : 0.000159403 .. 0.000159403
        j : 0.000392812 .. 0.000392812
        k : 0.000181499 .. 0.000181499

    Block 7833 cell size :
        i : 0.000309762 .. 0.0002973
        j : 0.000378311 .. 0.000378311
        k : 0.000102491 .. 0.000102491

    Block 7834 cell size :
        i : 0.000160847 .. 0.000160847
        j : 0.000392665 .. 0.000392665
        k : 0.000183801 .. 0.000183801

    Block 7835 cell size :
        i : 0.000311783 .. 0.000299314
        j : 0.000378017 .. 0.000378017
        k : 0.000103595 .. 0.000103595

    Block 7836 cell size :
        i : 0.000162365 .. 0.000162365
        j : 0.000392496 .. 0.000392496
        k : 0.000186241 .. 0.000186241

    Block 7837 cell size :
        i : 0.000313877 .. 0.000301406
        j : 0.000377706 .. 0.000377706
        k : 0.000104764 .. 0.000104764

    Block 7838 cell size :
        i : 0.000163954 .. 0.000163954
        j : 0.000392337 .. 0.000392337
        k : 0.000188827 .. 0.000188827

    Block 7839 cell size :
        i : 0.000316045 .. 0.000303575
        j : 0.000377374 .. 0.000377374
        k : 0.00010599 .. 0.00010599

    Block 7840 cell size :
        i : 0.000165614 .. 0.000165614
        j : 0.00039215 .. 0.00039215
        k : 0.000191552 .. 0.000191552

    Block 7841 cell size :
        i : 0.00031829 .. 0.000305824
        j : 0.000377031 .. 0.000377031
        k : 0.000107279 .. 0.000107279

    Block 7842 cell size :
        i : 0.000167348 .. 0.000167348
        j : 0.000391978 .. 0.000391978
        k : 0.000194416 .. 0.000194416

    Block 7843 cell size :
        i : 0.000320624 .. 0.000308163
        j : 0.000376671 .. 0.000376671
        k : 0.000108627 .. 0.000108627

    Block 7844 cell size :
        i : 0.000169154 .. 0.000169154
        j : 0.000391781 .. 0.000391781
        k : 0.000197423 .. 0.000197423

    Block 7845 cell size :
        i : 0.000323046 .. 0.00031059
        j : 0.000376291 .. 0.000376291
        k : 0.000110039 .. 0.000110039

    Block 7846 cell size :
        i : 0.000171033 .. 0.000171033
        j : 0.000391578 .. 0.000391578
        k : 0.000200571 .. 0.000200571

    Block 7847 cell size :
        i : 0.000325559 .. 0.000313111
        j : 0.000375894 .. 0.000375894
        k : 0.000111508 .. 0.000111508

    Block 7848 cell size :
        i : 0.000172991 .. 0.000172991
        j : 0.000391381 .. 0.000391381
        k : 0.000203859 .. 0.000203859

    Block 7849 cell size :
        i : 0.000328174 .. 0.000315734
        j : 0.000375483 .. 0.000375483
        k : 0.000113038 .. 0.000113038

    Block 7850 cell size :
        i : 0.000175022 .. 0.000175022
        j : 0.000391161 .. 0.000391161
        k : 0.000207285 .. 0.000207285

    Block 7851 cell size :
        i : 0.000330893 .. 0.000318461
        j : 0.000375048 .. 0.000375048
        k : 0.000114633 .. 0.000114633

    Block 7852 cell size :
        i : 0.000177131 .. 0.000177131
        j : 0.000390935 .. 0.000390935
        k : 0.000210858 .. 0.000210858

    Block 7853 cell size :
        i : 0.000333719 .. 0.000321293
        j : 0.00037461 .. 0.00037461
        k : 0.000116286 .. 0.000116286

    Block 7854 cell size :
        i : 0.000179315 .. 0.000179315
        j : 0.000390719 .. 0.000390719
        k : 0.000214567 .. 0.000214567

    Block 7855 cell size :
        i : 0.000336662 .. 0.000324241
        j : 0.000374152 .. 0.000374152
        k : 0.000118 .. 0.000118

    Block 7856 cell size :
        i : 0.000181577 .. 0.000181577
        j : 0.000390471 .. 0.000390471
        k : 0.000218419 .. 0.000218419

    Block 7857 cell size :
        i : 0.000339722 .. 0.000327305
        j : 0.000373664 .. 0.000373664
        k : 0.000119777 .. 0.000119777

    Block 7858 cell size :
        i : 0.000183919 .. 0.000183919
        j : 0.000390231 .. 0.000390231
        k : 0.00022241 .. 0.00022241

    Block 7859 cell size :
        i : 0.000342912 .. 0.000330496
        j : 0.000373177 .. 0.000373177
        k : 0.000121614 .. 0.000121614

    Block 7860 cell size :
        i : 0.000186341 .. 0.000186341
        j : 0.000389986 .. 0.000389986
        k : 0.000226544 .. 0.000226544

    Block 7861 cell size :
        i : 0.000346229 .. 0.000333811
        j : 0.000372655 .. 0.000372655
        k : 0.000123509 .. 0.000123509

    Block 7862 cell size :
        i : 0.000186342 .. 0.000186342
        j : 0.000312292 .. 0.000312292
        k : 0.000226545 .. 0.000226545

    Block 7863 cell size :
        i : 0.00034623 .. 0.000333812
        j : 0.000312301 .. 0.000312301
        k : 0.00012351 .. 0.00012351

    Block 7864 cell size :
        i : 0.000186344 .. 0.000186344
        j : 0.000312287 .. 0.000312287
        k : 0.000226545 .. 0.000226545

    Block 7865 cell size :
        i : 0.000346231 .. 0.000333814
        j : 0.000312287 .. 0.000312287
        k : 0.000123511 .. 0.000123511

    Block 7866 cell size :
        i : 0.000186342 .. 0.000186342
        j : 0.000312301 .. 0.000312301
        k : 0.000226545 .. 0.000226545

    Block 7867 cell size :
        i : 0.000346231 .. 0.000333812
        j : 0.000312301 .. 0.000312301
        k : 0.00012351 .. 0.00012351

    Block 7868 cell size :
        i : 0.000186342 .. 0.000186342
        j : 0.000312292 .. 0.000312292
        k : 0.000226545 .. 0.000226545

    Block 7869 cell size :
        i : 0.000346231 .. 0.000333812
        j : 0.000312292 .. 0.000312292
        k : 0.000123511 .. 0.000123511

    Block 7870 cell size :
        i : 0.000186342 .. 0.000186342
        j : 0.000312301 .. 0.000312301
        k : 0.000226545 .. 0.000226545

    Block 7871 cell size :
        i : 0.000346231 .. 0.000333812
        j : 0.000312301 .. 0.000312301
        k : 0.00012351 .. 0.00012351

    Block 7872 cell size :
        i : 0.000186341 .. 0.000186341
        j : 0.000312291 .. 0.000312291
        k : 0.000226545 .. 0.000226545

    Block 7873 cell size :
        i : 0.000346234 .. 0.000333815
        j : 0.000312287 .. 0.000312287
        k : 0.000123511 .. 0.000123511

    Block 7874 cell size :
        i : 0.000186343 .. 0.000186343
        j : 0.000312295 .. 0.000312295
        k : 0.000226545 .. 0.000226545

    Block 7875 cell size :
        i : 0.00034623 .. 0.000333812
        j : 0.000312299 .. 0.000312299
        k : 0.000123508 .. 0.000123508

    Block 7876 cell size :
        i : 0.000186341 .. 0.000186341
        j : 0.000312292 .. 0.000312292
        k : 0.000226545 .. 0.000226545

    Block 7877 cell size :
        i : 0.00034623 .. 0.000333812
        j : 0.000312292 .. 0.000312292
        k : 0.000123511 .. 0.000123511

    Block 7878 cell size :
        i : 0.000186342 .. 0.000186342
        j : 0.000312301 .. 0.000312301
        k : 0.000226545 .. 0.000226545

    Block 7879 cell size :
        i : 0.00034623 .. 0.000333812
        j : 0.000312301 .. 0.000312301
        k : 0.00012351 .. 0.00012351

    Block 7880 cell size :
        i : 0.000186342 .. 0.000186342
        j : 0.000312292 .. 0.000312292
        k : 0.000226546 .. 0.000226546

    Block 7881 cell size :
        i : 0.000346233 .. 0.000333814
        j : 0.000312287 .. 0.000312287
        k : 0.000123509 .. 0.000123509

    Block 7882 cell size :
        i : 0.000186344 .. 0.000186344
        j : 0.000312295 .. 0.000312295
        k : 0.000226544 .. 0.000226544

    Block 7883 cell size :
        i : 0.00034623 .. 0.000333811
        j : 0.000312292 .. 0.000312292
        k : 0.000123511 .. 0.000123511

    Block 7884 cell size :
        i : 0.000186342 .. 0.000186342
        j : 0.000312292 .. 0.000312292
        k : 0.000226545 .. 0.000226545

    Block 7885 cell size :
        i : 0.000346231 .. 0.000333812
        j : 0.000312301 .. 0.000312301
        k : 0.00012351 .. 0.00012351

    Block 7886 cell size :
        i : 0.000186342 .. 0.000186342
        j : 0.000312292 .. 0.000312292
        k : 0.000226545 .. 0.000226545

    Block 7887 cell size :
        i : 0.000346232 .. 0.000333813
        j : 0.000312292 .. 0.000312292
        k : 0.000123511 .. 0.000123511

    Block 7888 cell size :
        i : 0.000186341 .. 0.000186341
        j : 0.000312299 .. 0.000312299
        k : 0.000226545 .. 0.000226545

    Block 7889 cell size :
        i : 0.000346233 .. 0.000333815
        j : 0.000312295 .. 0.000312295
        k : 0.000123509 .. 0.000123509

    Block 7890 cell size :
        i : 0.000186343 .. 0.000186343
        j : 0.000312287 .. 0.000312287
        k : 0.000226545 .. 0.000226545

    Block 7891 cell size :
        i : 0.000346233 .. 0.000333815
        j : 0.000312291 .. 0.000312291
        k : 0.000123509 .. 0.000123509

    Block 7892 cell size :
        i : 0.000186342 .. 0.000186342
        j : 0.000312301 .. 0.000312301
        k : 0.000226545 .. 0.000226545

    Block 7893 cell size :
        i : 0.00034623 .. 0.000333812
        j : 0.000312301 .. 0.000312301
        k : 0.00012351 .. 0.00012351

    Block 7894 cell size :
        i : 0.000186342 .. 0.000186342
        j : 0.000312292 .. 0.000312292
        k : 0.000226545 .. 0.000226545

    Block 7895 cell size :
        i : 0.000346231 .. 0.000333812
        j : 0.000312292 .. 0.000312292
        k : 0.000123511 .. 0.000123511

    Block 7896 cell size :
        i : 0.000186342 .. 0.000186342
        j : 0.000312301 .. 0.000312301
        k : 0.000226545 .. 0.000226545

    Block 7897 cell size :
        i : 0.000346231 .. 0.000333812
        j : 0.000312301 .. 0.000312301
        k : 0.00012351 .. 0.00012351

    Block 7898 cell size :
        i : 0.000186342 .. 0.000186342
        j : 0.000312292 .. 0.000312292
        k : 0.000226546 .. 0.000226546

    Block 7899 cell size :
        i : 0.000346233 .. 0.000333815
        j : 0.000312287 .. 0.000312287
        k : 0.000123511 .. 0.000123511

    Block 7900 cell size :
        i : 0.000186342 .. 0.000186342
        j : 0.000312295 .. 0.000312295
        k : 0.000226544 .. 0.000226544

    Block 7901 cell size :
        i : 0.00034623 .. 0.000333811
        j : 0.000312292 .. 0.000312292
        k : 0.000123511 .. 0.000123511

    Block 7902 cell size :
        i : 0.000186341 .. 0.000186341
        j : 0.000312291 .. 0.000312291
        k : 0.000226543 .. 0.000226543

    Block 7903 cell size :
        i : 0.000346231 .. 0.000333813
        j : 0.000312301 .. 0.000312301
        k : 0.00012351 .. 0.00012351

    Block 7904 cell size :
        i : 0.000186341 .. 0.000186341
        j : 0.000312301 .. 0.000312301
        k : 0.000226544 .. 0.000226544

    Block 7905 cell size :
        i : 0.000346229 .. 0.000333811
        j : 0.000312291 .. 0.000312291
        k : 0.000123509 .. 0.000123509

    Block 7906 cell size :
        i : 0.000186341 .. 0.000186341
        j : 0.000312292 .. 0.000312292
        k : 0.000226546 .. 0.000226546

    Block 7907 cell size :
        i : 0.000346232 .. 0.000333814
        j : 0.000312295 .. 0.000312295
        k : 0.00012351 .. 0.00012351

    Block 7908 cell size :
        i : 0.000186344 .. 0.000186344
        j : 0.000312287 .. 0.000312287
        k : 0.000226545 .. 0.000226545

    Block 7909 cell size :
        i : 0.00034623 .. 0.000333813
        j : 0.000312292 .. 0.000312292
        k : 0.000123511 .. 0.000123511

    Block 7910 cell size :
        i : 0.000186342 .. 0.000186342
        j : 0.000312301 .. 0.000312301
        k : 0.000226545 .. 0.000226545

    Block 7911 cell size :
        i : 0.000346231 .. 0.000333812
        j : 0.000312301 .. 0.000312301
        k : 0.00012351 .. 0.00012351

    Block 7912 cell size :
        i : 0.000186342 .. 0.000186342
        j : 0.000312292 .. 0.000312292
        k : 0.000226545 .. 0.000226545

    Block 7913 cell size :
        i : 0.000346231 .. 0.000333812
        j : 0.000312292 .. 0.000312292
        k : 0.000123511 .. 0.000123511

    Block 7914 cell size :
        i : 0.000186342 .. 0.000186342
        j : 0.000312301 .. 0.000312301
        k : 0.000226546 .. 0.000226546

    Block 7915 cell size :
        i : 0.000346233 .. 0.000333814
        j : 0.000312295 .. 0.000312295
        k : 0.000123509 .. 0.000123509

    Block 7916 cell size :
        i : 0.000186344 .. 0.000186344
        j : 0.000312287 .. 0.000312287
        k : 0.000226545 .. 0.000226545

    Block 7917 cell size :
        i : 0.000346232 .. 0.000333813
        j : 0.000312292 .. 0.000312292
        k : 0.000123511 .. 0.000123511

    Block 7918 cell size :
        i : 0.000186341 .. 0.000186341
        j : 0.000312299 .. 0.000312299
        k : 0.000226543 .. 0.000226543

    Block 7919 cell size :
        i : 0.000346231 .. 0.000333813
        j : 0.000312301 .. 0.000312301
        k : 0.00012351 .. 0.00012351

    Block 7920 cell size :
        i : 0.000186341 .. 0.000186341
        j : 0.000312292 .. 0.000312292
        k : 0.000226545 .. 0.000226545

    Block 7921 cell size :
        i : 0.00034623 .. 0.000333812
        j : 0.000312291 .. 0.000312291
        k : 0.000123509 .. 0.000123509

    Block 7922 cell size :
        i : 0.000186342 .. 0.000186342
        j : 0.000312301 .. 0.000312301
        k : 0.000226545 .. 0.000226545

    Block 7923 cell size :
        i : 0.000346231 .. 0.000333813
        j : 0.000312287 .. 0.000312287
        k : 0.00012351 .. 0.00012351

    Block 7924 cell size :
        i : 0.000186344 .. 0.000186344
        j : 0.000312287 .. 0.000312287
        k : 0.000226545 .. 0.000226545

    Block 7925 cell size :
        i : 0.000346233 .. 0.000333815
        j : 0.000312301 .. 0.000312301
        k : 0.00012351 .. 0.00012351

    Block 7926 cell size :
        i : 0.000186341 .. 0.000186341
        j : 0.000312292 .. 0.000312292
        k : 0.000226545 .. 0.000226545

    Block 7927 cell size :
        i : 0.00034623 .. 0.000333811
        j : 0.000312292 .. 0.000312292
        k : 0.000123511 .. 0.000123511

    Block 7928 cell size :
        i : 0.000186342 .. 0.000186342
        j : 0.000312301 .. 0.000312301
        k : 0.000226545 .. 0.000226545

    Block 7929 cell size :
        i : 0.000346231 .. 0.000333812
        j : 0.000312301 .. 0.000312301
        k : 0.00012351 .. 0.00012351

    Block 7930 cell size :
        i : 0.000186342 .. 0.000186342
        j : 0.000312292 .. 0.000312292
        k : 0.000226545 .. 0.000226545

    Block 7931 cell size :
        i : 0.000346232 .. 0.000333813
        j : 0.000312292 .. 0.000312292
        k : 0.000123511 .. 0.000123511

    Block 7932 cell size :
        i : 0.000186341 .. 0.000186341
        j : 0.000312299 .. 0.000312299
        k : 0.000226545 .. 0.000226545

    Block 7933 cell size :
        i : 0.000346234 .. 0.000333816
        j : 0.000312295 .. 0.000312295
        k : 0.00012351 .. 0.00012351

    Block 7934 cell size :
        i : 0.000186341 .. 0.000186341
        j : 0.000312287 .. 0.000312287
        k : 0.000226545 .. 0.000226545

    Block 7935 cell size :
        i : 0.00034623 .. 0.000333812
        j : 0.000312291 .. 0.000312291
        k : 0.000123509 .. 0.000123509

    Block 7936 cell size :
        i : 0.000186341 .. 0.000186341
        j : 0.000312301 .. 0.000312301
        k : 0.000226545 .. 0.000226545

    Block 7937 cell size :
        i : 0.00034623 .. 0.000333812
        j : 0.000312301 .. 0.000312301
        k : 0.00012351 .. 0.00012351

    Block 7938 cell size :
        i : 0.000186342 .. 0.000186342
        j : 0.000312292 .. 0.000312292
        k : 0.000226545 .. 0.000226545

    Block 7939 cell size :
        i : 0.00034623 .. 0.000333812
        j : 0.000312292 .. 0.000312292
        k : 0.000123511 .. 0.000123511


There are no merge patch pairs

Writing polyMesh with 0 cellZones
----------------
Mesh Information
----------------
  boundingBox: (-0.019356 -0.0150324 -0.00292329) (0.0159286 0.0161212 0.0214606)
  nPoints: 134126
  nCells: 127040
  nFaces: 387792
  nInternalFaces: 374448
----------------
Patches
----------------
  patch 0 (start: 374448 size: 12704) name: wall
  patch 1 (start: 387152 size: 320) name: inlet
  patch 2 (start: 387472 size: 320) name: outlet

End

