/*---------------------------------------------------------------------------*\
| =========                 |                                                 |
| \\      /  F ield         | OpenFOAM: The Open Source CFD Toolbox           |
|  \\    /   O peration     | Version:  2206                                  |
|   \\  /    A nd           | Website:  www.openfoam.com                      |
|    \\/     M anipulation  |                                                 |
\*---------------------------------------------------------------------------*/
Build  : _76d719d1-20220624 OPENFOAM=2206 version=2206
Arch   : "LSB;label=32;scalar=64"
Exec   : blockMesh
Date   : Mar 13 2023
Time   : 14:15:23
Host   : 48890fced8bd
PID    : 48354
I/O    : uncollated
Case   : /root/pulsed-reactor-optimisation/mesh_generation/steady_state_case_new
nProcs : 1
trapFpe: Floating point exception trapping enabled (FOAM_SIGFPE).
fileModificationChecking : Monitoring run-time modified files using timeStampMaster (fileModificationSkew 5, maxFileModificationPolls 20)
allowSystemOperations : Allowing user-supplied system call operations

// * * * * * * * * * * * * * * * * * * * * * * * * * * * * * * * * * * * * * //
Create time

Creating block mesh from "system/blockMeshDict"
Creating block edges
Creating block faces
Creating topology blocks

Creating topology patches - from boundary section

Creating block mesh topology

Check topology

	Basic statistics
		Number of internal faces : 4980
		Number of boundary faces : 1272
		Number of defined boundary faces : 1272
		Number of undefined boundary faces : 0
	Checking patch -> block consistency

Creating block offsets
Creating merge list (geometric search)...

Creating polyMesh from blockMesh
Creating patches
Creating cells
Creating points with scale (1 1 1)
    Block 0 cell size :
        i : 0.000295767 .. 0.000295767
        j : 0.000369048 .. 0.000369048
        k : 0.000697126 .. 0.000697126

    Block 1 cell size :
        i : 0.000295767 .. 0.000295767
        j : 0.000261853 .. 0.000261853
        k : 0.000697126 .. 0.000697126

    Block 2 cell size :
        i : 0.000295766 .. 0.000295766
        j : 0.000258651 .. 0.000258651
        k : 0.00075671 .. 0.00075671

    Block 3 cell size :
        i : 0.000295765 .. 0.000295765
        j : 0.000375349 .. 0.000375349
        k : 0.00077923 .. 0.00077923

    Block 4 cell size :
        i : 0.000295767 .. 0.000295767
        j : 0.000250754 .. 0.000250754
        k : 0.00077923 .. 0.00077923

    Block 5 cell size :
        i : 0.000295767 .. 0.000295767
        j : 0.00024264 .. 0.00024264
        k : 0.000750668 .. 0.000750668

    Block 6 cell size :
        i : 0.000295766 .. 0.000295766
        j : 0.000380921 .. 0.000380921
        k : 0.00068881 .. 0.00068881

    Block 7 cell size :
        i : 0.000295767 .. 0.000295767
        j : 0.00023939 .. 0.00023939
        k : 0.00068881 .. 0.00068881

    Block 8 cell size :
        i : 0.000295768 .. 0.000295768
        j : 0.00024341 .. 0.00024341
        k : 0.000632136 .. 0.000632136

    Block 9 cell size :
        i : 0.000295767 .. 0.000295767
        j : 0.000374145 .. 0.000374145
        k : 0.000615881 .. 0.000615881

    Block 10 cell size :
        i : 0.000295767 .. 0.000295767
        j : 0.000252585 .. 0.000252585
        k : 0.000615881 .. 0.000615881

    Block 11 cell size :
        i : 0.000224522 .. 0.000224522
        j : 0.000261908 .. 0.000261908
        k : 0.000650179 .. 0.000650179

    Block 12 cell size :
        i : 0.000295767 .. 0.000295767
        j : 0.000369048 .. 0.000369048
        k : 0.000697126 .. 0.000697126

    Block 13 cell size :
        i : 0.000295767 .. 0.000295767
        j : 0.000268994 .. 0.000268994
        k : 0.000697126 .. 0.000697126

    Block 14 cell size :
        i : 0.000295767 .. 0.000295767
        j : 0.000258264 .. 0.000258264
        k : 0.000756708 .. 0.000756708

    Block 15 cell size :
        i : 0.000295767 .. 0.000295767
        j : 0.000375349 .. 0.000375349
        k : 0.000779222 .. 0.000779222

    Block 16 cell size :
        i : 0.000295765 .. 0.000295765
        j : 0.000250795 .. 0.000250795
        k : 0.000779222 .. 0.000779222

    Block 17 cell size :
        i : 0.000295767 .. 0.000295767
        j : 0.000255192 .. 0.000255192
        k : 0.00075068 .. 0.00075068

    Block 18 cell size :
        i : 0.000295767 .. 0.000295767
        j : 0.000380924 .. 0.000380924
        k : 0.000688821 .. 0.000688821

    Block 19 cell size :
        i : 0.000295766 .. 0.000295766
        j : 0.000241422 .. 0.000241422
        k : 0.000688821 .. 0.000688821

    Block 20 cell size :
        i : 0.000295768 .. 0.000295768
        j : 0.000245994 .. 0.000245994
        k : 0.000632139 .. 0.000632139

    Block 21 cell size :
        i : 0.000295766 .. 0.000295766
        j : 0.000374145 .. 0.000374145
        k : 0.000615883 .. 0.000615883

    Block 22 cell size :
        i : 0.000295767 .. 0.000295767
        j : 0.000251697 .. 0.000251697
        k : 0.000615883 .. 0.000615883

    Block 23 cell size :
        i : 0.000224521 .. 0.000224521
        j : 0.000266835 .. 0.000266835
        k : 0.00065017 .. 0.00065017

    Block 24 cell size :
        i : 0.000295767 .. 0.000295767
        j : 0.000369048 .. 0.000369048
        k : 0.000697131 .. 0.000697131

    Block 25 cell size :
        i : 0.000295767 .. 0.000295767
        j : 0.000275987 .. 0.000275987
        k : 0.000697131 .. 0.000697131

    Block 26 cell size :
        i : 0.000295767 .. 0.000295767
        j : 0.000257881 .. 0.000257881
        k : 0.000756703 .. 0.000756703

    Block 27 cell size :
        i : 0.000295767 .. 0.000295767
        j : 0.000375347 .. 0.000375347
        k : 0.000779216 .. 0.000779216

    Block 28 cell size :
        i : 0.000295767 .. 0.000295767
        j : 0.00025107 .. 0.00025107
        k : 0.000779216 .. 0.000779216

    Block 29 cell size :
        i : 0.000295769 .. 0.000295769
        j : 0.000267572 .. 0.000267572
        k : 0.000750673 .. 0.000750673

    Block 30 cell size :
        i : 0.000295767 .. 0.000295767
        j : 0.000380921 .. 0.000380921
        k : 0.000688819 .. 0.000688819

    Block 31 cell size :
        i : 0.000295767 .. 0.000295767
        j : 0.000243463 .. 0.000243463
        k : 0.000688819 .. 0.000688819

    Block 32 cell size :
        i : 0.000295765 .. 0.000295765
        j : 0.000248543 .. 0.000248543
        k : 0.00063213 .. 0.00063213

    Block 33 cell size :
        i : 0.000295767 .. 0.000295767
        j : 0.000374146 .. 0.000374146
        k : 0.000615888 .. 0.000615888

    Block 34 cell size :
        i : 0.000295766 .. 0.000295766
        j : 0.000251083 .. 0.000251083
        k : 0.000615888 .. 0.000615888

    Block 35 cell size :
        i : 0.000224524 .. 0.000224524
        j : 0.000271697 .. 0.000271697
        k : 0.000650175 .. 0.000650175

    Block 36 cell size :
        i : 0.000295766 .. 0.000295766
        j : 0.000369046 .. 0.000369046
        k : 0.000697132 .. 0.000697132

    Block 37 cell size :
        i : 0.000295767 .. 0.000295767
        j : 0.000282839 .. 0.000282839
        k : 0.000697132 .. 0.000697132

    Block 38 cell size :
        i : 0.000295767 .. 0.000295767
        j : 0.0002575 .. 0.0002575
        k : 0.000756708 .. 0.000756708

    Block 39 cell size :
        i : 0.000295766 .. 0.000295766
        j : 0.000375349 .. 0.000375349
        k : 0.000779228 .. 0.000779228

    Block 40 cell size :
        i : 0.000295767 .. 0.000295767
        j : 0.000251572 .. 0.000251572
        k : 0.000779228 .. 0.000779228

    Block 41 cell size :
        i : 0.000295767 .. 0.000295767
        j : 0.00027975 .. 0.00027975
        k : 0.000750673 .. 0.000750673

    Block 42 cell size :
        i : 0.000295765 .. 0.000295765
        j : 0.000380923 .. 0.000380923
        k : 0.000688823 .. 0.000688823

    Block 43 cell size :
        i : 0.000295767 .. 0.000295767
        j : 0.000245519 .. 0.000245519
        k : 0.000688823 .. 0.000688823

    Block 44 cell size :
        i : 0.000295768 .. 0.000295768
        j : 0.000251053 .. 0.000251053
        k : 0.000632135 .. 0.000632135

    Block 45 cell size :
        i : 0.000295766 .. 0.000295766
        j : 0.000374144 .. 0.000374144
        k : 0.000615879 .. 0.000615879

    Block 46 cell size :
        i : 0.000295767 .. 0.000295767
        j : 0.00025074 .. 0.00025074
        k : 0.000615879 .. 0.000615879

    Block 47 cell size :
        i : 0.000224522 .. 0.000224522
        j : 0.000276492 .. 0.000276492
        k : 0.000650169 .. 0.000650169

    Block 48 cell size :
        i : 0.000295768 .. 0.000295768
        j : 0.000369048 .. 0.000369048
        k : 0.00069713 .. 0.00069713

    Block 49 cell size :
        i : 0.000295766 .. 0.000295766
        j : 0.000289549 .. 0.000289549
        k : 0.00069713 .. 0.00069713

    Block 50 cell size :
        i : 0.000295767 .. 0.000295767
        j : 0.000257117 .. 0.000257117
        k : 0.0007567 .. 0.0007567

    Block 51 cell size :
        i : 0.000295767 .. 0.000295767
        j : 0.000375349 .. 0.000375349
        k : 0.000779222 .. 0.000779222

    Block 52 cell size :
        i : 0.000295766 .. 0.000295766
        j : 0.000252283 .. 0.000252283
        k : 0.000779222 .. 0.000779222

    Block 53 cell size :
        i : 0.000295767 .. 0.000295767
        j : 0.000291702 .. 0.000291702
        k : 0.000750673 .. 0.000750673

    Block 54 cell size :
        i : 0.000295768 .. 0.000295768
        j : 0.000380923 .. 0.000380923
        k : 0.000688818 .. 0.000688818

    Block 55 cell size :
        i : 0.000295765 .. 0.000295765
        j : 0.000247584 .. 0.000247584
        k : 0.000688818 .. 0.000688818

    Block 56 cell size :
        i : 0.000295768 .. 0.000295768
        j : 0.000253524 .. 0.000253524
        k : 0.000632133 .. 0.000632133

    Block 57 cell size :
        i : 0.000295767 .. 0.000295767
        j : 0.000374146 .. 0.000374146
        k : 0.000615886 .. 0.000615886

    Block 58 cell size :
        i : 0.000295766 .. 0.000295766
        j : 0.000250655 .. 0.000250655
        k : 0.000615886 .. 0.000615886

    Block 59 cell size :
        i : 0.000224523 .. 0.000224523
        j : 0.000281225 .. 0.000281225
        k : 0.000650177 .. 0.000650177

    Block 60 cell size :
        i : 0.000295768 .. 0.000295768
        j : 0.000369048 .. 0.000369048
        k : 0.000697125 .. 0.000697125

    Block 61 cell size :
        i : 0.000295768 .. 0.000295768
        j : 0.000296115 .. 0.000296115
        k : 0.000697125 .. 0.000697125

    Block 62 cell size :
        i : 0.000295767 .. 0.000295767
        j : 0.000256719 .. 0.000256719
        k : 0.000756704 .. 0.000756704

    Block 63 cell size :
        i : 0.000295767 .. 0.000295767
        j : 0.000375348 .. 0.000375348
        k : 0.000779222 .. 0.000779222

    Block 64 cell size :
        i : 0.000295767 .. 0.000295767
        j : 0.000253195 .. 0.000253195
        k : 0.000779222 .. 0.000779222

    Block 65 cell size :
        i : 0.000295768 .. 0.000295768
        j : 0.000303405 .. 0.000303405
        k : 0.000750679 .. 0.000750679

    Block 66 cell size :
        i : 0.000295766 .. 0.000295766
        j : 0.000380921 .. 0.000380921
        k : 0.000688809 .. 0.000688809

    Block 67 cell size :
        i : 0.000295768 .. 0.000295768
        j : 0.000249658 .. 0.000249658
        k : 0.000688809 .. 0.000688809

    Block 68 cell size :
        i : 0.000295765 .. 0.000295765
        j : 0.00025595 .. 0.00025595
        k : 0.000632134 .. 0.000632134

    Block 69 cell size :
        i : 0.000295767 .. 0.000295767
        j : 0.000374145 .. 0.000374145
        k : 0.00061588 .. 0.00061588

    Block 70 cell size :
        i : 0.000295767 .. 0.000295767
        j : 0.000250826 .. 0.000250826
        k : 0.00061588 .. 0.00061588

    Block 71 cell size :
        i : 0.000224523 .. 0.000224523
        j : 0.000285889 .. 0.000285889
        k : 0.000650173 .. 0.000650173

    Block 72 cell size :
        i : 0.000295766 .. 0.000295766
        j : 0.000369045 .. 0.000369045
        k : 0.000697123 .. 0.000697123

    Block 73 cell size :
        i : 0.000295768 .. 0.000295768
        j : 0.000302538 .. 0.000302538
        k : 0.000697123 .. 0.000697123

    Block 74 cell size :
        i : 0.000295766 .. 0.000295766
        j : 0.000256311 .. 0.000256311
        k : 0.00075671 .. 0.00075671

    Block 75 cell size :
        i : 0.000295768 .. 0.000295768
        j : 0.00037535 .. 0.00037535
        k : 0.000779222 .. 0.000779222

    Block 76 cell size :
        i : 0.000295767 .. 0.000295767
        j : 0.000254295 .. 0.000254295
        k : 0.000779222 .. 0.000779222

    Block 77 cell size :
        i : 0.000295765 .. 0.000295765
        j : 0.000314846 .. 0.000314846
        k : 0.000750667 .. 0.000750667

    Block 78 cell size :
        i : 0.000295768 .. 0.000295768
        j : 0.000380924 .. 0.000380924
        k : 0.000688819 .. 0.000688819

    Block 79 cell size :
        i : 0.000295766 .. 0.000295766
        j : 0.000251745 .. 0.000251745
        k : 0.000688819 .. 0.000688819

    Block 80 cell size :
        i : 0.000295768 .. 0.000295768
        j : 0.000258333 .. 0.000258333
        k : 0.000632141 .. 0.000632141

    Block 81 cell size :
        i : 0.000295767 .. 0.000295767
        j : 0.000374145 .. 0.000374145
        k : 0.000615885 .. 0.000615885

    Block 82 cell size :
        i : 0.000295767 .. 0.000295767
        j : 0.00025125 .. 0.00025125
        k : 0.000615885 .. 0.000615885

    Block 83 cell size :
        i : 0.000224523 .. 0.000224523
        j : 0.000290488 .. 0.000290488
        k : 0.000650178 .. 0.000650178

    Block 84 cell size :
        i : 0.000295765 .. 0.000295765
        j : 0.000369048 .. 0.000369048
        k : 0.000697131 .. 0.000697131

    Block 85 cell size :
        i : 0.000295766 .. 0.000295766
        j : 0.00030882 .. 0.00030882
        k : 0.000697131 .. 0.000697131

    Block 86 cell size :
        i : 0.000295767 .. 0.000295767
        j : 0.000255881 .. 0.000255881
        k : 0.000756699 .. 0.000756699

    Block 87 cell size :
        i : 0.000295767 .. 0.000295767
        j : 0.00037535 .. 0.00037535
        k : 0.000779226 .. 0.000779226

    Block 88 cell size :
        i : 0.000295768 .. 0.000295768
        j : 0.000255565 .. 0.000255565
        k : 0.000779226 .. 0.000779226

    Block 89 cell size :
        i : 0.000295768 .. 0.000295768
        j : 0.000326009 .. 0.000326009
        k : 0.000750673 .. 0.000750673

    Block 90 cell size :
        i : 0.000295768 .. 0.000295768
        j : 0.000380923 .. 0.000380923
        k : 0.000688818 .. 0.000688818

    Block 91 cell size :
        i : 0.000295768 .. 0.000295768
        j : 0.000253844 .. 0.000253844
        k : 0.000688818 .. 0.000688818

    Block 92 cell size :
        i : 0.000295765 .. 0.000295765
        j : 0.000260668 .. 0.000260668
        k : 0.00063213 .. 0.00063213

    Block 93 cell size :
        i : 0.000295766 .. 0.000295766
        j : 0.000374144 .. 0.000374144
        k : 0.000615887 .. 0.000615887

    Block 94 cell size :
        i : 0.000295767 .. 0.000295767
        j : 0.000251914 .. 0.000251914
        k : 0.000615887 .. 0.000615887

    Block 95 cell size :
        i : 0.000224523 .. 0.000224523
        j : 0.00029502 .. 0.00029502
        k : 0.000650167 .. 0.000650167

    Block 96 cell size :
        i : 0.000295766 .. 0.000295766
        j : 0.000369048 .. 0.000369048
        k : 0.000697128 .. 0.000697128

    Block 97 cell size :
        i : 0.000295765 .. 0.000295765
        j : 0.000314955 .. 0.000314955
        k : 0.000697128 .. 0.000697128

    Block 98 cell size :
        i : 0.000295767 .. 0.000295767
        j : 0.000255431 .. 0.000255431
        k : 0.000756706 .. 0.000756706

    Block 99 cell size :
        i : 0.000295766 .. 0.000295766
        j : 0.000375351 .. 0.000375351
        k : 0.000779218 .. 0.000779218

    Block 100 cell size :
        i : 0.000295767 .. 0.000295767
        j : 0.000257001 .. 0.000257001
        k : 0.000779218 .. 0.000779218

    Block 101 cell size :
        i : 0.000295768 .. 0.000295768
        j : 0.000336886 .. 0.000336886
        k : 0.000750674 .. 0.000750674

    Block 102 cell size :
        i : 0.000295766 .. 0.000295766
        j : 0.000380921 .. 0.000380921
        k : 0.000688822 .. 0.000688822

    Block 103 cell size :
        i : 0.000295768 .. 0.000295768
        j : 0.00025595 .. 0.00025595
        k : 0.000688822 .. 0.000688822

    Block 104 cell size :
        i : 0.000295768 .. 0.000295768
        j : 0.000262947 .. 0.000262947
        k : 0.000632137 .. 0.000632137

    Block 105 cell size :
        i : 0.000295766 .. 0.000295766
        j : 0.000374143 .. 0.000374143
        k : 0.000615882 .. 0.000615882

    Block 106 cell size :
        i : 0.000295766 .. 0.000295766
        j : 0.000252815 .. 0.000252815
        k : 0.000615882 .. 0.000615882

    Block 107 cell size :
        i : 0.000224523 .. 0.000224523
        j : 0.000299485 .. 0.000299485
        k : 0.000650175 .. 0.000650175

    Block 108 cell size :
        i : 0.000295768 .. 0.000295768
        j : 0.000369048 .. 0.000369048
        k : 0.000697132 .. 0.000697132

    Block 109 cell size :
        i : 0.000295766 .. 0.000295766
        j : 0.000320947 .. 0.000320947
        k : 0.000697132 .. 0.000697132

    Block 110 cell size :
        i : 0.000295768 .. 0.000295768
        j : 0.000254952 .. 0.000254952
        k : 0.000756707 .. 0.000756707

    Block 111 cell size :
        i : 0.000295768 .. 0.000295768
        j : 0.000375348 .. 0.000375348
        k : 0.000779224 .. 0.000779224

    Block 112 cell size :
        i : 0.000295766 .. 0.000295766
        j : 0.000258583 .. 0.000258583
        k : 0.000779224 .. 0.000779224

    Block 113 cell size :
        i : 0.000295767 .. 0.000295767
        j : 0.000347466 .. 0.000347466
        k : 0.000750673 .. 0.000750673

    Block 114 cell size :
        i : 0.000295768 .. 0.000295768
        j : 0.000380923 .. 0.000380923
        k : 0.000688821 .. 0.000688821

    Block 115 cell size :
        i : 0.000295766 .. 0.000295766
        j : 0.00025807 .. 0.00025807
        k : 0.000688821 .. 0.000688821

    Block 116 cell size :
        i : 0.000295768 .. 0.000295768
        j : 0.000265179 .. 0.000265179
        k : 0.000632132 .. 0.000632132

    Block 117 cell size :
        i : 0.000295768 .. 0.000295768
        j : 0.000374145 .. 0.000374145
        k : 0.000615877 .. 0.000615877

    Block 118 cell size :
        i : 0.000295766 .. 0.000295766
        j : 0.000253946 .. 0.000253946
        k : 0.000615877 .. 0.000615877

    Block 119 cell size :
        i : 0.000224523 .. 0.000224523
        j : 0.000303885 .. 0.000303885
        k : 0.000650171 .. 0.000650171

    Block 120 cell size :
        i : 0.000295767 .. 0.000295767
        j : 0.000369048 .. 0.000369048
        k : 0.000697124 .. 0.000697124

    Block 121 cell size :
        i : 0.000295768 .. 0.000295768
        j : 0.000326795 .. 0.000326795
        k : 0.000697124 .. 0.000697124

    Block 122 cell size :
        i : 0.000295766 .. 0.000295766
        j : 0.00025444 .. 0.00025444
        k : 0.000756703 .. 0.000756703

    Block 123 cell size :
        i : 0.000295768 .. 0.000295768
        j : 0.00037535 .. 0.00037535
        k : 0.000779223 .. 0.000779223

    Block 124 cell size :
        i : 0.000295768 .. 0.000295768
        j : 0.000260306 .. 0.000260306
        k : 0.000779223 .. 0.000779223

    Block 125 cell size :
        i : 0.000295767 .. 0.000295767
        j : 0.000357739 .. 0.000357739
        k : 0.000750678 .. 0.000750678

    Block 126 cell size :
        i : 0.000295766 .. 0.000295766
        j : 0.000380921 .. 0.000380921
        k : 0.00068881 .. 0.00068881

    Block 127 cell size :
        i : 0.000295768 .. 0.000295768
        j : 0.000260196 .. 0.000260196
        k : 0.00068881 .. 0.00068881

    Block 128 cell size :
        i : 0.000295765 .. 0.000295765
        j : 0.000267354 .. 0.000267354
        k : 0.000632137 .. 0.000632137

    Block 129 cell size :
        i : 0.000295766 .. 0.000295766
        j : 0.000374144 .. 0.000374144
        k : 0.000615885 .. 0.000615885

    Block 130 cell size :
        i : 0.000295768 .. 0.000295768
        j : 0.000255302 .. 0.000255302
        k : 0.000615885 .. 0.000615885

    Block 131 cell size :
        i : 0.000224522 .. 0.000224522
        j : 0.000308219 .. 0.000308219
        k : 0.000650175 .. 0.000650175

    Block 132 cell size :
        i : 0.000295767 .. 0.000295767
        j : 0.000369046 .. 0.000369046
        k : 0.00069713 .. 0.00069713

    Block 133 cell size :
        i : 0.000295767 .. 0.000295767
        j : 0.000332504 .. 0.000332504
        k : 0.00069713 .. 0.00069713

    Block 134 cell size :
        i : 0.000295767 .. 0.000295767
        j : 0.000253894 .. 0.000253894
        k : 0.000756711 .. 0.000756711

    Block 135 cell size :
        i : 0.000295765 .. 0.000295765
        j : 0.000375347 .. 0.000375347
        k : 0.000779228 .. 0.000779228

    Block 136 cell size :
        i : 0.000295768 .. 0.000295768
        j : 0.000262154 .. 0.000262154
        k : 0.000779228 .. 0.000779228

    Block 137 cell size :
        i : 0.000295766 .. 0.000295766
        j : 0.000367702 .. 0.000367702
        k : 0.000750673 .. 0.000750673

    Block 138 cell size :
        i : 0.000295766 .. 0.000295766
        j : 0.000380923 .. 0.000380923
        k : 0.000688823 .. 0.000688823

    Block 139 cell size :
        i : 0.000295766 .. 0.000295766
        j : 0.000262336 .. 0.000262336
        k : 0.000688823 .. 0.000688823

    Block 140 cell size :
        i : 0.000295767 .. 0.000295767
        j : 0.000269471 .. 0.000269471
        k : 0.000632141 .. 0.000632141

    Block 141 cell size :
        i : 0.000295766 .. 0.000295766
        j : 0.000374146 .. 0.000374146
        k : 0.000615884 .. 0.000615884

    Block 142 cell size :
        i : 0.000295766 .. 0.000295766
        j : 0.000256875 .. 0.000256875
        k : 0.000615884 .. 0.000615884

    Block 143 cell size :
        i : 0.000224523 .. 0.000224523
        j : 0.000312484 .. 0.000312484
        k : 0.000650171 .. 0.000650171

    Block 144 cell size :
        i : 0.000295767 .. 0.000295767
        j : 0.000369048 .. 0.000369048
        k : 0.000697129 .. 0.000697129

    Block 145 cell size :
        i : 0.000295767 .. 0.000295767
        j : 0.000338067 .. 0.000338067
        k : 0.000697129 .. 0.000697129

    Block 146 cell size :
        i : 0.000295766 .. 0.000295766
        j : 0.000253307 .. 0.000253307
        k : 0.000756699 .. 0.000756699

    Block 147 cell size :
        i : 0.000295767 .. 0.000295767
        j : 0.000375348 .. 0.000375348
        k : 0.000779217 .. 0.000779217

    Block 148 cell size :
        i : 0.000295765 .. 0.000295765
        j : 0.000264119 .. 0.000264119
        k : 0.000779217 .. 0.000779217

    Block 149 cell size :
        i : 0.000295767 .. 0.000295767
        j : 0.000377348 .. 0.000377348
        k : 0.000750675 .. 0.000750675

    Block 150 cell size :
        i : 0.000295768 .. 0.000295768
        j : 0.000380924 .. 0.000380924
        k : 0.000688813 .. 0.000688813

    Block 151 cell size :
        i : 0.000295766 .. 0.000295766
        j : 0.000264482 .. 0.000264482
        k : 0.000688813 .. 0.000688813

    Block 152 cell size :
        i : 0.000295768 .. 0.000295768
        j : 0.000271532 .. 0.000271532
        k : 0.000632126 .. 0.000632126

    Block 153 cell size :
        i : 0.000295768 .. 0.000295768
        j : 0.000374146 .. 0.000374146
        k : 0.000615886 .. 0.000615886

    Block 154 cell size :
        i : 0.000295766 .. 0.000295766
        j : 0.000258656 .. 0.000258656
        k : 0.000615886 .. 0.000615886

    Block 155 cell size :
        i : 0.000224524 .. 0.000224524
        j : 0.000316684 .. 0.000316684
        k : 0.000650171 .. 0.000650171

    Block 156 cell size :
        i : 0.000295768 .. 0.000295768
        j : 0.000369048 .. 0.000369048
        k : 0.000697135 .. 0.000697135

    Block 157 cell size :
        i : 0.000295767 .. 0.000295767
        j : 0.000343486 .. 0.000343486
        k : 0.000697135 .. 0.000697135

    Block 158 cell size :
        i : 0.000295766 .. 0.000295766
        j : 0.000252677 .. 0.000252677
        k : 0.000756708 .. 0.000756708

    Block 159 cell size :
        i : 0.000295768 .. 0.000295768
        j : 0.00037535 .. 0.00037535
        k : 0.000779222 .. 0.000779222

    Block 160 cell size :
        i : 0.000295767 .. 0.000295767
        j : 0.000266187 .. 0.000266187
        k : 0.000779222 .. 0.000779222

    Block 161 cell size :
        i : 0.000295767 .. 0.000295767
        j : 0.000386669 .. 0.000386669
        k : 0.000750671 .. 0.000750671

    Block 162 cell size :
        i : 0.000295766 .. 0.000295766
        j : 0.000380921 .. 0.000380921
        k : 0.000688817 .. 0.000688817

    Block 163 cell size :
        i : 0.000295768 .. 0.000295768
        j : 0.000266636 .. 0.000266636
        k : 0.000688817 .. 0.000688817

    Block 164 cell size :
        i : 0.000295766 .. 0.000295766
        j : 0.000273535 .. 0.000273535
        k : 0.000632142 .. 0.000632142

    Block 165 cell size :
        i : 0.000295768 .. 0.000295768
        j : 0.000374146 .. 0.000374146
        k : 0.000615881 .. 0.000615881

    Block 166 cell size :
        i : 0.000295768 .. 0.000295768
        j : 0.000260645 .. 0.000260645
        k : 0.000615881 .. 0.000615881

    Block 167 cell size :
        i : 0.000224524 .. 0.000224524
        j : 0.000320819 .. 0.000320819
        k : 0.000650178 .. 0.000650178

    Block 168 cell size :
        i : 0.000295766 .. 0.000295766
        j : 0.000369046 .. 0.000369046
        k : 0.000697123 .. 0.000697123

    Block 169 cell size :
        i : 0.000295768 .. 0.000295768
        j : 0.000348762 .. 0.000348762
        k : 0.000697123 .. 0.000697123

    Block 170 cell size :
        i : 0.000295767 .. 0.000295767
        j : 0.000252002 .. 0.000252002
        k : 0.000756705 .. 0.000756705

    Block 171 cell size :
        i : 0.000295766 .. 0.000295766
        j : 0.000375349 .. 0.000375349
        k : 0.000779227 .. 0.000779227

    Block 172 cell size :
        i : 0.000295768 .. 0.000295768
        j : 0.000268347 .. 0.000268347
        k : 0.000779227 .. 0.000779227

    Block 173 cell size :
        i : 0.000295768 .. 0.000295768
        j : 0.000395666 .. 0.000395666
        k : 0.000750676 .. 0.000750676

    Block 174 cell size :
        i : 0.000295767 .. 0.000295767
        j : 0.000380923 .. 0.000380923
        k : 0.000688822 .. 0.000688822

    Block 175 cell size :
        i : 0.000295766 .. 0.000295766
        j : 0.000268803 .. 0.000268803
        k : 0.000688822 .. 0.000688822

    Block 176 cell size :
        i : 0.000295768 .. 0.000295768
        j : 0.000275471 .. 0.000275471
        k : 0.000632127 .. 0.000632127

    Block 177 cell size :
        i : 0.000295767 .. 0.000295767
        j : 0.000374145 .. 0.000374145
        k : 0.000615886 .. 0.000615886

    Block 178 cell size :
        i : 0.000295768 .. 0.000295768
        j : 0.000262834 .. 0.000262834
        k : 0.000615886 .. 0.000615886

    Block 179 cell size :
        i : 0.000224522 .. 0.000224522
        j : 0.000324884 .. 0.000324884
        k : 0.000650167 .. 0.000650167

    Block 180 cell size :
        i : 0.000295767 .. 0.000295767
        j : 0.000369048 .. 0.000369048
        k : 0.000697128 .. 0.000697128

    Block 181 cell size :
        i : 0.000295766 .. 0.000295766
        j : 0.000353894 .. 0.000353894
        k : 0.000697128 .. 0.000697128

    Block 182 cell size :
        i : 0.000295767 .. 0.000295767
        j : 0.000251277 .. 0.000251277
        k : 0.000756704 .. 0.000756704

    Block 183 cell size :
        i : 0.000295768 .. 0.000295768
        j : 0.000375349 .. 0.000375349
        k : 0.000779226 .. 0.000779226

    Block 184 cell size :
        i : 0.000295766 .. 0.000295766
        j : 0.000270594 .. 0.000270594
        k : 0.000779226 .. 0.000779226

    Block 185 cell size :
        i : 0.000295766 .. 0.000295766
        j : 0.000404337 .. 0.000404337
        k : 0.000750671 .. 0.000750671

    Block 186 cell size :
        i : 0.000295769 .. 0.000295769
        j : 0.000380923 .. 0.000380923
        k : 0.000688818 .. 0.000688818

    Block 187 cell size :
        i : 0.000295767 .. 0.000295767
        j : 0.000270976 .. 0.000270976
        k : 0.000688818 .. 0.000688818

    Block 188 cell size :
        i : 0.000295766 .. 0.000295766
        j : 0.000277349 .. 0.000277349
        k : 0.000632139 .. 0.000632139

    Block 189 cell size :
        i : 0.000295767 .. 0.000295767
        j : 0.000374145 .. 0.000374145
        k : 0.000615882 .. 0.000615882

    Block 190 cell size :
        i : 0.000295767 .. 0.000295767
        j : 0.00026522 .. 0.00026522
        k : 0.000615882 .. 0.000615882

    Block 191 cell size :
        i : 0.000224523 .. 0.000224523
        j : 0.000328885 .. 0.000328885
        k : 0.000650176 .. 0.000650176

    Block 192 cell size :
        i : 0.000295767 .. 0.000295767
        j : 0.000369048 .. 0.000369048
        k : 0.000697133 .. 0.000697133

    Block 193 cell size :
        i : 0.000295767 .. 0.000295767
        j : 0.000358881 .. 0.000358881
        k : 0.000697133 .. 0.000697133

    Block 194 cell size :
        i : 0.000295766 .. 0.000295766
        j : 0.000250496 .. 0.000250496
        k : 0.000756704 .. 0.000756704

    Block 195 cell size :
        i : 0.000295768 .. 0.000295768
        j : 0.000375347 .. 0.000375347
        k : 0.000779218 .. 0.000779218

    Block 196 cell size :
        i : 0.000295768 .. 0.000295768
        j : 0.000272916 .. 0.000272916
        k : 0.000779218 .. 0.000779218

    Block 197 cell size :
        i : 0.000295765 .. 0.000295765
        j : 0.000412671 .. 0.000412671
        k : 0.000750674 .. 0.000750674

    Block 198 cell size :
        i : 0.000295765 .. 0.000295765
        j : 0.000380921 .. 0.000380921
        k : 0.000688819 .. 0.000688819

    Block 199 cell size :
        i : 0.000295769 .. 0.000295769
        j : 0.000273156 .. 0.000273156
        k : 0.000688819 .. 0.000688819

    Block 200 cell size :
        i : 0.000295768 .. 0.000295768
        j : 0.000279158 .. 0.000279158
        k : 0.000632133 .. 0.000632133

    Block 201 cell size :
        i : 0.000295767 .. 0.000295767
        j : 0.000374145 .. 0.000374145
        k : 0.000615884 .. 0.000615884

    Block 202 cell size :
        i : 0.000295767 .. 0.000295767
        j : 0.000267798 .. 0.000267798
        k : 0.000615884 .. 0.000615884

    Block 203 cell size :
        i : 0.000224523 .. 0.000224523
        j : 0.000332816 .. 0.000332816
        k : 0.000650167 .. 0.000650167

    Block 204 cell size :
        i : 0.000295768 .. 0.000295768
        j : 0.000369048 .. 0.000369048
        k : 0.000697125 .. 0.000697125

    Block 205 cell size :
        i : 0.000295767 .. 0.000295767
        j : 0.000363728 .. 0.000363728
        k : 0.000697125 .. 0.000697125

    Block 206 cell size :
        i : 0.000295766 .. 0.000295766
        j : 0.000249665 .. 0.000249665
        k : 0.000756711 .. 0.000756711

    Block 207 cell size :
        i : 0.000295768 .. 0.000295768
        j : 0.000375349 .. 0.000375349
        k : 0.000779219 .. 0.000779219

    Block 208 cell size :
        i : 0.000295768 .. 0.000295768
        j : 0.000275302 .. 0.000275302
        k : 0.000779219 .. 0.000779219

    Block 209 cell size :
        i : 0.000295766 .. 0.000295766
        j : 0.00042067 .. 0.00042067
        k : 0.000750675 .. 0.000750675

    Block 210 cell size :
        i : 0.000295767 .. 0.000295767
        j : 0.000380924 .. 0.000380924
        k : 0.000688815 .. 0.000688815

    Block 211 cell size :
        i : 0.000295765 .. 0.000295765
        j : 0.000275349 .. 0.000275349
        k : 0.000688815 .. 0.000688815

    Block 212 cell size :
        i : 0.000295768 .. 0.000295768
        j : 0.000280903 .. 0.000280903
        k : 0.000632138 .. 0.000632138

    Block 213 cell size :
        i : 0.000295768 .. 0.000295768
        j : 0.000374146 .. 0.000374146
        k : 0.000615887 .. 0.000615887

    Block 214 cell size :
        i : 0.000295767 .. 0.000295767
        j : 0.000270559 .. 0.000270559
        k : 0.000615887 .. 0.000615887

    Block 215 cell size :
        i : 0.000224522 .. 0.000224522
        j : 0.000336683 .. 0.000336683
        k : 0.000650181 .. 0.000650181

    Block 216 cell size :
        i : 0.000295768 .. 0.000295768
        j : 0.000369048 .. 0.000369048
        k : 0.000697128 .. 0.000697128

    Block 217 cell size :
        i : 0.000295768 .. 0.000295768
        j : 0.000368428 .. 0.000368428
        k : 0.000697128 .. 0.000697128

    Block 218 cell size :
        i : 0.000295767 .. 0.000295767
        j : 0.000248769 .. 0.000248769
        k : 0.000756706 .. 0.000756706

    Block 219 cell size :
        i : 0.000295768 .. 0.000295768
        j : 0.000375348 .. 0.000375348
        k : 0.000779225 .. 0.000779225

    Block 220 cell size :
        i : 0.000295768 .. 0.000295768
        j : 0.000277745 .. 0.000277745
        k : 0.000779225 .. 0.000779225

    Block 221 cell size :
        i : 0.000295767 .. 0.000295767
        j : 0.000428334 .. 0.000428334
        k : 0.000750666 .. 0.000750666

    Block 222 cell size :
        i : 0.000295768 .. 0.000295768
        j : 0.000380921 .. 0.000380921
        k : 0.000688816 .. 0.000688816

    Block 223 cell size :
        i : 0.000295767 .. 0.000295767
        j : 0.000277546 .. 0.000277546
        k : 0.000688816 .. 0.000688816

    Block 224 cell size :
        i : 0.000295765 .. 0.000295765
        j : 0.000282584 .. 0.000282584
        k : 0.000632133 .. 0.000632133

    Block 225 cell size :
        i : 0.000295766 .. 0.000295766
        j : 0.000374144 .. 0.000374144
        k : 0.000615882 .. 0.000615882

    Block 226 cell size :
        i : 0.000295768 .. 0.000295768
        j : 0.0002735 .. 0.0002735
        k : 0.000615882 .. 0.000615882

    Block 227 cell size :
        i : 0.000224522 .. 0.000224522
        j : 0.000340483 .. 0.000340483
        k : 0.000650174 .. 0.000650174

    Block 228 cell size :
        i : 0.000295766 .. 0.000295766
        j : 0.000369048 .. 0.000369048
        k : 0.000697125 .. 0.000697125

    Block 229 cell size :
        i : 0.000295768 .. 0.000295768
        j : 0.000372988 .. 0.000372988
        k : 0.000697125 .. 0.000697125

    Block 230 cell size :
        i : 0.000295767 .. 0.000295767
        j : 0.000247815 .. 0.000247815
        k : 0.000756704 .. 0.000756704

    Block 231 cell size :
        i : 0.000295765 .. 0.000295765
        j : 0.000375348 .. 0.000375348
        k : 0.000779222 .. 0.000779222

    Block 232 cell size :
        i : 0.000295768 .. 0.000295768
        j : 0.000280239 .. 0.000280239
        k : 0.000779222 .. 0.000779222

    Block 233 cell size :
        i : 0.000295765 .. 0.000295765
        j : 0.000435652 .. 0.000435652
        k : 0.000750675 .. 0.000750675

    Block 234 cell size :
        i : 0.000295766 .. 0.000295766
        j : 0.000380921 .. 0.000380921
        k : 0.000688823 .. 0.000688823

    Block 235 cell size :
        i : 0.000295768 .. 0.000295768
        j : 0.000279756 .. 0.000279756
        k : 0.000688823 .. 0.000688823

    Block 236 cell size :
        i : 0.000295767 .. 0.000295767
        j : 0.000284194 .. 0.000284194
        k : 0.000632137 .. 0.000632137

    Block 237 cell size :
        i : 0.000295768 .. 0.000295768
        j : 0.000374145 .. 0.000374145
        k : 0.000615878 .. 0.000615878

    Block 238 cell size :
        i : 0.000295766 .. 0.000295766
        j : 0.000276627 .. 0.000276627
        k : 0.000615878 .. 0.000615878

    Block 239 cell size :
        i : 0.000224521 .. 0.000224521
        j : 0.000344214 .. 0.000344214
        k : 0.000650169 .. 0.000650169

    Block 240 cell size :
        i : 0.000295766 .. 0.000295766
        j : 0.000369048 .. 0.000369048
        k : 0.000697131 .. 0.000697131

    Block 241 cell size :
        i : 0.000295766 .. 0.000295766
        j : 0.000377403 .. 0.000377403
        k : 0.000697131 .. 0.000697131

    Block 242 cell size :
        i : 0.000295767 .. 0.000295767
        j : 0.000246797 .. 0.000246797
        k : 0.000756706 .. 0.000756706

    Block 243 cell size :
        i : 0.000295768 .. 0.000295768
        j : 0.000375348 .. 0.000375348
        k : 0.000779225 .. 0.000779225

    Block 244 cell size :
        i : 0.000295765 .. 0.000295765
        j : 0.000282773 .. 0.000282773
        k : 0.000779225 .. 0.000779225

    Block 245 cell size :
        i : 0.000295768 .. 0.000295768
        j : 0.000442634 .. 0.000442634
        k : 0.000750678 .. 0.000750678

    Block 246 cell size :
        i : 0.000295769 .. 0.000295769
        j : 0.000380923 .. 0.000380923
        k : 0.000688821 .. 0.000688821

    Block 247 cell size :
        i : 0.000295766 .. 0.000295766
        j : 0.000281971 .. 0.000281971
        k : 0.000688821 .. 0.000688821

    Block 248 cell size :
        i : 0.000295767 .. 0.000295767
        j : 0.000285735 .. 0.000285735
        k : 0.000632131 .. 0.000632131

    Block 249 cell size :
        i : 0.000295767 .. 0.000295767
        j : 0.000374146 .. 0.000374146
        k : 0.000615886 .. 0.000615886

    Block 250 cell size :
        i : 0.000295768 .. 0.000295768
        j : 0.000279923 .. 0.000279923
        k : 0.000615886 .. 0.000615886

    Block 251 cell size :
        i : 0.000224521 .. 0.000224521
        j : 0.000347881 .. 0.000347881
        k : 0.00065017 .. 0.00065017

    Block 252 cell size :
        i : 0.000295766 .. 0.000295766
        j : 0.000369048 .. 0.000369048
        k : 0.000697125 .. 0.000697125

    Block 253 cell size :
        i : 0.000295766 .. 0.000295766
        j : 0.000381671 .. 0.000381671
        k : 0.000697125 .. 0.000697125

    Block 254 cell size :
        i : 0.000295767 .. 0.000295767
        j : 0.00024571 .. 0.00024571
        k : 0.000756706 .. 0.000756706

    Block 255 cell size :
        i : 0.000295767 .. 0.000295767
        j : 0.000375347 .. 0.000375347
        k : 0.000779225 .. 0.000779225

    Block 256 cell size :
        i : 0.000295768 .. 0.000295768
        j : 0.000285342 .. 0.000285342
        k : 0.000779225 .. 0.000779225

    Block 257 cell size :
        i : 0.000295767 .. 0.000295767
        j : 0.000449268 .. 0.000449268
        k : 0.000750675 .. 0.000750675

    Block 258 cell size :
        i : 0.000295765 .. 0.000295765
        j : 0.000380921 .. 0.000380921
        k : 0.000688816 .. 0.000688816

    Block 259 cell size :
        i : 0.000295769 .. 0.000295769
        j : 0.000284193 .. 0.000284193
        k : 0.000688816 .. 0.000688816

    Block 260 cell size :
        i : 0.000295765 .. 0.000295765
        j : 0.000287207 .. 0.000287207
        k : 0.000632138 .. 0.000632138

    Block 261 cell size :
        i : 0.000295768 .. 0.000295768
        j : 0.000374147 .. 0.000374147
        k : 0.000615885 .. 0.000615885

    Block 262 cell size :
        i : 0.000295767 .. 0.000295767
        j : 0.000283392 .. 0.000283392
        k : 0.000615885 .. 0.000615885

    Block 263 cell size :
        i : 0.000224524 .. 0.000224524
        j : 0.000351479 .. 0.000351479
        k : 0.000650172 .. 0.000650172

    Block 264 cell size :
        i : 0.000295767 .. 0.000295767
        j : 0.000369046 .. 0.000369046
        k : 0.000697129 .. 0.000697129

    Block 265 cell size :
        i : 0.000295766 .. 0.000295766
        j : 0.000385799 .. 0.000385799
        k : 0.000697129 .. 0.000697129

    Block 266 cell size :
        i : 0.000295767 .. 0.000295767
        j : 0.000244556 .. 0.000244556
        k : 0.000756702 .. 0.000756702

    Block 267 cell size :
        i : 0.000295766 .. 0.000295766
        j : 0.00037535 .. 0.00037535
        k : 0.000779223 .. 0.000779223

    Block 268 cell size :
        i : 0.000295767 .. 0.000295767
        j : 0.00028794 .. 0.00028794
        k : 0.000779223 .. 0.000779223

    Block 269 cell size :
        i : 0.000295767 .. 0.000295767
        j : 0.000455558 .. 0.000455558
        k : 0.00075067 .. 0.00075067

    Block 270 cell size :
        i : 0.000295767 .. 0.000295767
        j : 0.000380923 .. 0.000380923
        k : 0.000688814 .. 0.000688814

    Block 271 cell size :
        i : 0.000295765 .. 0.000295765
        j : 0.000286426 .. 0.000286426
        k : 0.000688814 .. 0.000688814

    Block 272 cell size :
        i : 0.000295768 .. 0.000295768
        j : 0.000288607 .. 0.000288607
        k : 0.000632129 .. 0.000632129

    Block 273 cell size :
        i : 0.000295767 .. 0.000295767
        j : 0.000374144 .. 0.000374144
        k : 0.00061588 .. 0.00061588

    Block 274 cell size :
        i : 0.000295768 .. 0.000295768
        j : 0.000287032 .. 0.000287032
        k : 0.00061588 .. 0.00061588

    Block 275 cell size :
        i : 0.000224523 .. 0.000224523
        j : 0.00035501 .. 0.00035501
        k : 0.000650177 .. 0.000650177

    Block 276 cell size :
        i : 0.000295768 .. 0.000295768
        j : 0.000369048 .. 0.000369048
        k : 0.000697128 .. 0.000697128

    Block 277 cell size :
        i : 0.000295767 .. 0.000295767
        j : 0.000389785 .. 0.000389785
        k : 0.000697128 .. 0.000697128

    Block 278 cell size :
        i : 0.000295767 .. 0.000295767
        j : 0.00024333 .. 0.00024333
        k : 0.000756703 .. 0.000756703

    Block 279 cell size :
        i : 0.000295768 .. 0.000295768
        j : 0.000375351 .. 0.000375351
        k : 0.000779215 .. 0.000779215

    Block 280 cell size :
        i : 0.000295766 .. 0.000295766
        j : 0.000290559 .. 0.000290559
        k : 0.000779215 .. 0.000779215

    Block 281 cell size :
        i : 0.000295765 .. 0.000295765
        j : 0.000461504 .. 0.000461504
        k : 0.000750672 .. 0.000750672

    Block 282 cell size :
        i : 0.000295767 .. 0.000295767
        j : 0.000380923 .. 0.000380923
        k : 0.000688819 .. 0.000688819

    Block 283 cell size :
        i : 0.000295767 .. 0.000295767
        j : 0.000288664 .. 0.000288664
        k : 0.000688819 .. 0.000688819

    Block 284 cell size :
        i : 0.000295768 .. 0.000295768
        j : 0.000289937 .. 0.000289937
        k : 0.000632139 .. 0.000632139

    Block 285 cell size :
        i : 0.000295767 .. 0.000295767
        j : 0.000374144 .. 0.000374144
        k : 0.000615882 .. 0.000615882

    Block 286 cell size :
        i : 0.000295767 .. 0.000295767
        j : 0.000290841 .. 0.000290841
        k : 0.000615882 .. 0.000615882

    Block 287 cell size :
        i : 0.000224521 .. 0.000224521
        j : 0.000358475 .. 0.000358475
        k : 0.00065017 .. 0.00065017

    Block 288 cell size :
        i : 0.000295768 .. 0.000295768
        j : 0.000369048 .. 0.000369048
        k : 0.00069713 .. 0.00069713

    Block 289 cell size :
        i : 0.000295768 .. 0.000295768
        j : 0.000393623 .. 0.000393623
        k : 0.00069713 .. 0.00069713

    Block 290 cell size :
        i : 0.000295768 .. 0.000295768
        j : 0.00024203 .. 0.00024203
        k : 0.000756711 .. 0.000756711

    Block 291 cell size :
        i : 0.000295768 .. 0.000295768
        j : 0.000375347 .. 0.000375347
        k : 0.000779227 .. 0.000779227

    Block 292 cell size :
        i : 0.000295768 .. 0.000295768
        j : 0.000293194 .. 0.000293194
        k : 0.000779227 .. 0.000779227

    Block 293 cell size :
        i : 0.000295768 .. 0.000295768
        j : 0.000467098 .. 0.000467098
        k : 0.000750681 .. 0.000750681

    Block 294 cell size :
        i : 0.000295767 .. 0.000295767
        j : 0.000380921 .. 0.000380921
        k : 0.000688817 .. 0.000688817

    Block 295 cell size :
        i : 0.000295767 .. 0.000295767
        j : 0.00029091 .. 0.00029091
        k : 0.000688817 .. 0.000688817

    Block 296 cell size :
        i : 0.000295768 .. 0.000295768
        j : 0.000291196 .. 0.000291196
        k : 0.000632133 .. 0.000632133

    Block 297 cell size :
        i : 0.000295767 .. 0.000295767
        j : 0.000374146 .. 0.000374146
        k : 0.000615893 .. 0.000615893

    Block 298 cell size :
        i : 0.000295767 .. 0.000295767
        j : 0.000294816 .. 0.000294816
        k : 0.000615893 .. 0.000615893

    Block 299 cell size :
        i : 0.000224521 .. 0.000224521
        j : 0.000361872 .. 0.000361872
        k : 0.000650171 .. 0.000650171

    Block 300 cell size :
        i : 0.000295767 .. 0.000295767
        j : 0.000369046 .. 0.000369046
        k : 0.000697129 .. 0.000697129

    Block 301 cell size :
        i : 0.000295768 .. 0.000295768
        j : 0.000397321 .. 0.000397321
        k : 0.000697129 .. 0.000697129

    Block 302 cell size :
        i : 0.000295767 .. 0.000295767
        j : 0.000240656 .. 0.000240656
        k : 0.000756702 .. 0.000756702

    Block 303 cell size :
        i : 0.000295767 .. 0.000295767
        j : 0.000375349 .. 0.000375349
        k : 0.000779218 .. 0.000779218

    Block 304 cell size :
        i : 0.000295768 .. 0.000295768
        j : 0.00029584 .. 0.00029584
        k : 0.000779218 .. 0.000779218

    Block 305 cell size :
        i : 0.000295764 .. 0.000295764
        j : 0.000472347 .. 0.000472347
        k : 0.000750674 .. 0.000750674

    Block 306 cell size :
        i : 0.000295768 .. 0.000295768
        j : 0.000380923 .. 0.000380923
        k : 0.000688816 .. 0.000688816

    Block 307 cell size :
        i : 0.000295767 .. 0.000295767
        j : 0.000293166 .. 0.000293166
        k : 0.000688816 .. 0.000688816

    Block 308 cell size :
        i : 0.000295768 .. 0.000295768
        j : 0.000292375 .. 0.000292375
        k : 0.00063214 .. 0.00063214

    Block 309 cell size :
        i : 0.000295766 .. 0.000295766
        j : 0.000374143 .. 0.000374143
        k : 0.000615882 .. 0.000615882

    Block 310 cell size :
        i : 0.000295767 .. 0.000295767
        j : 0.000298957 .. 0.000298957
        k : 0.000615882 .. 0.000615882

    Block 311 cell size :
        i : 0.000224522 .. 0.000224522
        j : 0.000365203 .. 0.000365203
        k : 0.000650175 .. 0.000650175

    Block 312 cell size :
        i : 0.000295768 .. 0.000295768
        j : 0.000369048 .. 0.000369048
        k : 0.000697128 .. 0.000697128

    Block 313 cell size :
        i : 0.000295767 .. 0.000295767
        j : 0.000400874 .. 0.000400874
        k : 0.000697128 .. 0.000697128

    Block 314 cell size :
        i : 0.000295767 .. 0.000295767
        j : 0.000239202 .. 0.000239202
        k : 0.000756706 .. 0.000756706

    Block 315 cell size :
        i : 0.000295768 .. 0.000295768
        j : 0.000375349 .. 0.000375349
        k : 0.000779225 .. 0.000779225

    Block 316 cell size :
        i : 0.000295767 .. 0.000295767
        j : 0.000298494 .. 0.000298494
        k : 0.000779225 .. 0.000779225

    Block 317 cell size :
        i : 0.000295766 .. 0.000295766
        j : 0.000477246 .. 0.000477246
        k : 0.00075067 .. 0.00075067

    Block 318 cell size :
        i : 0.000295768 .. 0.000295768
        j : 0.000380924 .. 0.000380924
        k : 0.000688819 .. 0.000688819

    Block 319 cell size :
        i : 0.000295768 .. 0.000295768
        j : 0.000295425 .. 0.000295425
        k : 0.000688819 .. 0.000688819

    Block 320 cell size :
        i : 0.000295765 .. 0.000295765
        j : 0.000293486 .. 0.000293486
        k : 0.000632133 .. 0.000632133

    Block 321 cell size :
        i : 0.000295767 .. 0.000295767
        j : 0.000374146 .. 0.000374146
        k : 0.000615876 .. 0.000615876

    Block 322 cell size :
        i : 0.000295766 .. 0.000295766
        j : 0.00030326 .. 0.00030326
        k : 0.000615876 .. 0.000615876

    Block 323 cell size :
        i : 0.000224522 .. 0.000224522
        j : 0.000368467 .. 0.000368467
        k : 0.000650176 .. 0.000650176

    Block 324 cell size :
        i : 0.000295767 .. 0.000295767
        j : 0.000369048 .. 0.000369048
        k : 0.000697123 .. 0.000697123

    Block 325 cell size :
        i : 0.000295768 .. 0.000295768
        j : 0.00040428 .. 0.00040428
        k : 0.000697123 .. 0.000697123

    Block 326 cell size :
        i : 0.000295767 .. 0.000295767
        j : 0.000237674 .. 0.000237674
        k : 0.000756704 .. 0.000756704

    Block 327 cell size :
        i : 0.000295766 .. 0.000295766
        j : 0.000375348 .. 0.000375348
        k : 0.000779231 .. 0.000779231

    Block 328 cell size :
        i : 0.000295768 .. 0.000295768
        j : 0.000301146 .. 0.000301146
        k : 0.000779231 .. 0.000779231

    Block 329 cell size :
        i : 0.000295767 .. 0.000295767
        j : 0.000481792 .. 0.000481792
        k : 0.000750675 .. 0.000750675

    Block 330 cell size :
        i : 0.000295767 .. 0.000295767
        j : 0.000380921 .. 0.000380921
        k : 0.000688822 .. 0.000688822

    Block 331 cell size :
        i : 0.000295768 .. 0.000295768
        j : 0.000297694 .. 0.000297694
        k : 0.000688822 .. 0.000688822

    Block 332 cell size :
        i : 0.000295767 .. 0.000295767
        j : 0.00029452 .. 0.00029452
        k : 0.000632132 .. 0.000632132

    Block 333 cell size :
        i : 0.000295767 .. 0.000295767
        j : 0.000374146 .. 0.000374146
        k : 0.000615885 .. 0.000615885

    Block 334 cell size :
        i : 0.000295767 .. 0.000295767
        j : 0.000307723 .. 0.000307723
        k : 0.000615885 .. 0.000615885

    Block 335 cell size :
        i : 0.000224521 .. 0.000224521
        j : 0.000371662 .. 0.000371662
        k : 0.000650177 .. 0.000650177

    Block 336 cell size :
        i : 0.000295766 .. 0.000295766
        j : 0.000369048 .. 0.000369048
        k : 0.000697126 .. 0.000697126

    Block 337 cell size :
        i : 0.000295767 .. 0.000295767
        j : 0.000407546 .. 0.000407546
        k : 0.000697126 .. 0.000697126

    Block 338 cell size :
        i : 0.000295767 .. 0.000295767
        j : 0.000236063 .. 0.000236063
        k : 0.000756705 .. 0.000756705

    Block 339 cell size :
        i : 0.000295767 .. 0.000295767
        j : 0.000375347 .. 0.000375347
        k : 0.000779219 .. 0.000779219

    Block 340 cell size :
        i : 0.000295766 .. 0.000295766
        j : 0.000303798 .. 0.000303798
        k : 0.000779219 .. 0.000779219

    Block 341 cell size :
        i : 0.000295766 .. 0.000295766
        j : 0.000485991 .. 0.000485991
        k : 0.000750675 .. 0.000750675

    Block 342 cell size :
        i : 0.000295766 .. 0.000295766
        j : 0.000380923 .. 0.000380923
        k : 0.000688819 .. 0.000688819

    Block 343 cell size :
        i : 0.000295767 .. 0.000295767
        j : 0.000299971 .. 0.000299971
        k : 0.000688819 .. 0.000688819

    Block 344 cell size :
        i : 0.000295768 .. 0.000295768
        j : 0.000295477 .. 0.000295477
        k : 0.000632138 .. 0.000632138

    Block 345 cell size :
        i : 0.000295767 .. 0.000295767
        j : 0.000374146 .. 0.000374146
        k : 0.000615892 .. 0.000615892

    Block 346 cell size :
        i : 0.000295767 .. 0.000295767
        j : 0.000312352 .. 0.000312352
        k : 0.000615892 .. 0.000615892

    Block 347 cell size :
        i : 0.000224522 .. 0.000224522
        j : 0.000374792 .. 0.000374792
        k : 0.000650173 .. 0.000650173

    Block 348 cell size :
        i : 0.000295768 .. 0.000295768
        j : 0.000369048 .. 0.000369048
        k : 0.000697133 .. 0.000697133

    Block 349 cell size :
        i : 0.000295766 .. 0.000295766
        j : 0.000410667 .. 0.000410667
        k : 0.000697133 .. 0.000697133

    Block 350 cell size :
        i : 0.000295767 .. 0.000295767
        j : 0.000234371 .. 0.000234371
        k : 0.000756703 .. 0.000756703

    Block 351 cell size :
        i : 0.000295767 .. 0.000295767
        j : 0.00037535 .. 0.00037535
        k : 0.000779223 .. 0.000779223

    Block 352 cell size :
        i : 0.000295767 .. 0.000295767
        j : 0.000306442 .. 0.000306442
        k : 0.000779223 .. 0.000779223

    Block 353 cell size :
        i : 0.000295767 .. 0.000295767
        j : 0.000489835 .. 0.000489835
        k : 0.000750671 .. 0.000750671

    Block 354 cell size :
        i : 0.000295767 .. 0.000295767
        j : 0.000380921 .. 0.000380921
        k : 0.000688819 .. 0.000688819

    Block 355 cell size :
        i : 0.000295766 .. 0.000295766
        j : 0.000302254 .. 0.000302254
        k : 0.000688819 .. 0.000688819

    Block 356 cell size :
        i : 0.000295766 .. 0.000295766
        j : 0.000296362 .. 0.000296362
        k : 0.000632129 .. 0.000632129

    Block 357 cell size :
        i : 0.000295767 .. 0.000295767
        j : 0.000374144 .. 0.000374144
        k : 0.000615879 .. 0.000615879

    Block 358 cell size :
        i : 0.000295767 .. 0.000295767
        j : 0.000317142 .. 0.000317142
        k : 0.000615879 .. 0.000615879

    Block 359 cell size :
        i : 0.000224523 .. 0.000224523
        j : 0.000377856 .. 0.000377856
        k : 0.000650164 .. 0.000650164

    Block 360 cell size :
        i : 0.000295765 .. 0.000295765
        j : 0.000369045 .. 0.000369045
        k : 0.000697124 .. 0.000697124

    Block 361 cell size :
        i : 0.000295768 .. 0.000295768
        j : 0.000413646 .. 0.000413646
        k : 0.000697124 .. 0.000697124

    Block 362 cell size :
        i : 0.000295767 .. 0.000295767
        j : 0.000232592 .. 0.000232592
        k : 0.000756711 .. 0.000756711

    Block 363 cell size :
        i : 0.000295765 .. 0.000295765
        j : 0.000375349 .. 0.000375349
        k : 0.000779218 .. 0.000779218

    Block 364 cell size :
        i : 0.000295767 .. 0.000295767
        j : 0.000309075 .. 0.000309075
        k : 0.000779218 .. 0.000779218

    Block 365 cell size :
        i : 0.000295766 .. 0.000295766
        j : 0.000493325 .. 0.000493325
        k : 0.00075067 .. 0.00075067

    Block 366 cell size :
        i : 0.000295766 .. 0.000295766
        j : 0.000380923 .. 0.000380923
        k : 0.000688817 .. 0.000688817

    Block 367 cell size :
        i : 0.000295767 .. 0.000295767
        j : 0.000304543 .. 0.000304543
        k : 0.000688817 .. 0.000688817

    Block 368 cell size :
        i : 0.000295768 .. 0.000295768
        j : 0.000297166 .. 0.000297166
        k : 0.000632136 .. 0.000632136

    Block 369 cell size :
        i : 0.000295767 .. 0.000295767
        j : 0.000374145 .. 0.000374145
        k : 0.000615886 .. 0.000615886

    Block 370 cell size :
        i : 0.000295767 .. 0.000295767
        j : 0.000322096 .. 0.000322096
        k : 0.000615886 .. 0.000615886

    Block 371 cell size :
        i : 0.000224522 .. 0.000224522
        j : 0.000380851 .. 0.000380851
        k : 0.00065018 .. 0.00065018

    Block 372 cell size :
        i : 0.000295768 .. 0.000295768
        j : 0.000369048 .. 0.000369048
        k : 0.00069713 .. 0.00069713

    Block 373 cell size :
        i : 0.000295765 .. 0.000295765
        j : 0.000416482 .. 0.000416482
        k : 0.00069713 .. 0.00069713

    Block 374 cell size :
        i : 0.000295768 .. 0.000295768
        j : 0.000230731 .. 0.000230731
        k : 0.000756703 .. 0.000756703

    Block 375 cell size :
        i : 0.000295768 .. 0.000295768
        j : 0.000375351 .. 0.000375351
        k : 0.00077923 .. 0.00077923

    Block 376 cell size :
        i : 0.000295765 .. 0.000295765
        j : 0.000311694 .. 0.000311694
        k : 0.00077923 .. 0.00077923

    Block 377 cell size :
        i : 0.000295768 .. 0.000295768
        j : 0.000496463 .. 0.000496463
        k : 0.000750678 .. 0.000750678

    Block 378 cell size :
        i : 0.000295766 .. 0.000295766
        j : 0.000380923 .. 0.000380923
        k : 0.00068882 .. 0.00068882

    Block 379 cell size :
        i : 0.000295766 .. 0.000295766
        j : 0.00030684 .. 0.00030684
        k : 0.00068882 .. 0.00068882

    Block 380 cell size :
        i : 0.000295768 .. 0.000295768
        j : 0.000297894 .. 0.000297894
        k : 0.000632135 .. 0.000632135

    Block 381 cell size :
        i : 0.00029577 .. 0.00029577
        j : 0.000374144 .. 0.000374144
        k : 0.000615882 .. 0.000615882

    Block 382 cell size :
        i : 0.000295767 .. 0.000295767
        j : 0.000327212 .. 0.000327212
        k : 0.000615882 .. 0.000615882

    Block 383 cell size :
        i : 0.000224523 .. 0.000224523
        j : 0.000383782 .. 0.000383782
        k : 0.000650174 .. 0.000650174

    Block 384 cell size :
        i : 0.000295767 .. 0.000295767
        j : 0.000369048 .. 0.000369048
        k : 0.000697132 .. 0.000697132

    Block 385 cell size :
        i : 0.000295768 .. 0.000295768
        j : 0.00041917 .. 0.00041917
        k : 0.000697132 .. 0.000697132

    Block 386 cell size :
        i : 0.000295767 .. 0.000295767
        j : 0.00022878 .. 0.00022878
        k : 0.0007567 .. 0.0007567

    Block 387 cell size :
        i : 0.000295767 .. 0.000295767
        j : 0.000375348 .. 0.000375348
        k : 0.000779217 .. 0.000779217

    Block 388 cell size :
        i : 0.000295768 .. 0.000295768
        j : 0.0003143 .. 0.0003143
        k : 0.000779217 .. 0.000779217

    Block 389 cell size :
        i : 0.000295767 .. 0.000295767
        j : 0.000499246 .. 0.000499246
        k : 0.000750669 .. 0.000750669

    Block 390 cell size :
        i : 0.000295766 .. 0.000295766
        j : 0.000380921 .. 0.000380921
        k : 0.000688812 .. 0.000688812

    Block 391 cell size :
        i : 0.000295766 .. 0.000295766
        j : 0.000309141 .. 0.000309141
        k : 0.000688812 .. 0.000688812

    Block 392 cell size :
        i : 0.000295766 .. 0.000295766
        j : 0.000298546 .. 0.000298546
        k : 0.000632132 .. 0.000632132

    Block 393 cell size :
        i : 0.000295767 .. 0.000295767
        j : 0.000374147 .. 0.000374147
        k : 0.000615878 .. 0.000615878

    Block 394 cell size :
        i : 0.00029577 .. 0.00029577
        j : 0.000332489 .. 0.000332489
        k : 0.000615878 .. 0.000615878

    Block 395 cell size :
        i : 0.000224521 .. 0.000224521
        j : 0.000386641 .. 0.000386641
        k : 0.000650166 .. 0.000650166

    Block 396 cell size :
        i : 0.000295766 .. 0.000295766
        j : 0.000369045 .. 0.000369045
        k : 0.000697122 .. 0.000697122

    Block 397 cell size :
        i : 0.000295767 .. 0.000295767
        j : 0.000421719 .. 0.000421719
        k : 0.000697122 .. 0.000697122

    Block 398 cell size :
        i : 0.000295767 .. 0.000295767
        j : 0.000226747 .. 0.000226747
        k : 0.00075671 .. 0.00075671

    Block 399 cell size :
        i : 0.000295767 .. 0.000295767
        j : 0.000375348 .. 0.000375348
        k : 0.000779226 .. 0.000779226

    Block 400 cell size :
        i : 0.000295767 .. 0.000295767
        j : 0.000316886 .. 0.000316886
        k : 0.000779226 .. 0.000779226

    Block 401 cell size :
        i : 0.000295767 .. 0.000295767
        j : 0.000501675 .. 0.000501675
        k : 0.000750677 .. 0.000750677

    Block 402 cell size :
        i : 0.000295767 .. 0.000295767
        j : 0.000380923 .. 0.000380923
        k : 0.00068882 .. 0.00068882

    Block 403 cell size :
        i : 0.000295766 .. 0.000295766
        j : 0.000311453 .. 0.000311453
        k : 0.00068882 .. 0.00068882

    Block 404 cell size :
        i : 0.000295768 .. 0.000295768
        j : 0.000299119 .. 0.000299119
        k : 0.000632136 .. 0.000632136

    Block 405 cell size :
        i : 0.000295767 .. 0.000295767
        j : 0.000374145 .. 0.000374145
        k : 0.000615889 .. 0.000615889

    Block 406 cell size :
        i : 0.000295767 .. 0.000295767
        j : 0.000337934 .. 0.000337934
        k : 0.000615889 .. 0.000615889

    Block 407 cell size :
        i : 0.000224522 .. 0.000224522
        j : 0.000389438 .. 0.000389438
        k : 0.000650175 .. 0.000650175

    Block 408 cell size :
        i : 0.000295767 .. 0.000295767
        j : 0.000369048 .. 0.000369048
        k : 0.000697134 .. 0.000697134

    Block 409 cell size :
        i : 0.000295766 .. 0.000295766
        j : 0.000424123 .. 0.000424123
        k : 0.000697134 .. 0.000697134

    Block 410 cell size :
        i : 0.000295766 .. 0.000295766
        j : 0.00022462 .. 0.00022462
        k : 0.000756707 .. 0.000756707

    Block 411 cell size :
        i : 0.000295767 .. 0.000295767
        j : 0.000375349 .. 0.000375349
        k : 0.000779218 .. 0.000779218

    Block 412 cell size :
        i : 0.000295767 .. 0.000295767
        j : 0.000319452 .. 0.000319452
        k : 0.000779218 .. 0.000779218

    Block 413 cell size :
        i : 0.000295769 .. 0.000295769
        j : 0.000503752 .. 0.000503752
        k : 0.000750672 .. 0.000750672

    Block 414 cell size :
        i : 0.000295769 .. 0.000295769
        j : 0.000380923 .. 0.000380923
        k : 0.000688814 .. 0.000688814

    Block 415 cell size :
        i : 0.000295767 .. 0.000295767
        j : 0.00031377 .. 0.00031377
        k : 0.000688814 .. 0.000688814

    Block 416 cell size :
        i : 0.000295766 .. 0.000295766
        j : 0.000299613 .. 0.000299613
        k : 0.000632142 .. 0.000632142

    Block 417 cell size :
        i : 0.000295767 .. 0.000295767
        j : 0.000374144 .. 0.000374144
        k : 0.000615885 .. 0.000615885

    Block 418 cell size :
        i : 0.000295767 .. 0.000295767
        j : 0.000343543 .. 0.000343543
        k : 0.000615885 .. 0.000615885

    Block 419 cell size :
        i : 0.000224523 .. 0.000224523
        j : 0.000392166 .. 0.000392166
        k : 0.000650176 .. 0.000650176

    Block 420 cell size :
        i : 0.000295765 .. 0.000295765
        j : 0.000369048 .. 0.000369048
        k : 0.000697129 .. 0.000697129

    Block 421 cell size :
        i : 0.000295767 .. 0.000295767
        j : 0.000426379 .. 0.000426379
        k : 0.000697129 .. 0.000697129

    Block 422 cell size :
        i : 0.000295766 .. 0.000295766
        j : 0.000222406 .. 0.000222406
        k : 0.000756703 .. 0.000756703

    Block 423 cell size :
        i : 0.000295764 .. 0.000295764
        j : 0.000375349 .. 0.000375349
        k : 0.000779225 .. 0.000779225

    Block 424 cell size :
        i : 0.000295767 .. 0.000295767
        j : 0.000321994 .. 0.000321994
        k : 0.000779225 .. 0.000779225

    Block 425 cell size :
        i : 0.000295766 .. 0.000295766
        j : 0.000505473 .. 0.000505473
        k : 0.00075068 .. 0.00075068

    Block 426 cell size :
        i : 0.000295768 .. 0.000295768
        j : 0.00038092 .. 0.00038092
        k : 0.000688824 .. 0.000688824

    Block 427 cell size :
        i : 0.000295769 .. 0.000295769
        j : 0.000316093 .. 0.000316093
        k : 0.000688824 .. 0.000688824

    Block 428 cell size :
        i : 0.000295768 .. 0.000295768
        j : 0.000300028 .. 0.000300028
        k : 0.00063213 .. 0.00063213

    Block 429 cell size :
        i : 0.000295766 .. 0.000295766
        j : 0.000374144 .. 0.000374144
        k : 0.00061588 .. 0.00061588

    Block 430 cell size :
        i : 0.000295767 .. 0.000295767
        j : 0.000349319 .. 0.000349319
        k : 0.00061588 .. 0.00061588

    Block 431 cell size :
        i : 0.000224523 .. 0.000224523
        j : 0.000394825 .. 0.000394825
        k : 0.000650171 .. 0.000650171

    Block 432 cell size :
        i : 0.000295767 .. 0.000295767
        j : 0.000369048 .. 0.000369048
        k : 0.000697123 .. 0.000697123

    Block 433 cell size :
        i : 0.000295765 .. 0.000295765
        j : 0.000428495 .. 0.000428495
        k : 0.000697123 .. 0.000697123

    Block 434 cell size :
        i : 0.000295767 .. 0.000295767
        j : 0.000220104 .. 0.000220104
        k : 0.000756705 .. 0.000756705

    Block 435 cell size :
        i : 0.000295767 .. 0.000295767
        j : 0.000375347 .. 0.000375347
        k : 0.000779223 .. 0.000779223

    Block 436 cell size :
        i : 0.000295764 .. 0.000295764
        j : 0.000324512 .. 0.000324512
        k : 0.000779223 .. 0.000779223

    Block 437 cell size :
        i : 0.000295767 .. 0.000295767
        j : 0.000506838 .. 0.000506838
        k : 0.000750665 .. 0.000750665

    Block 438 cell size :
        i : 0.000295767 .. 0.000295767
        j : 0.000380923 .. 0.000380923
        k : 0.000688815 .. 0.000688815

    Block 439 cell size :
        i : 0.000295768 .. 0.000295768
        j : 0.000318424 .. 0.000318424
        k : 0.000688815 .. 0.000688815

    Block 440 cell size :
        i : 0.000295768 .. 0.000295768
        j : 0.000300361 .. 0.000300361
        k : 0.000632139 .. 0.000632139

    Block 441 cell size :
        i : 0.000295767 .. 0.000295767
        j : 0.000374146 .. 0.000374146
        k : 0.000615883 .. 0.000615883

    Block 442 cell size :
        i : 0.000295766 .. 0.000295766
        j : 0.00035526 .. 0.00035526
        k : 0.000615883 .. 0.000615883

    Block 443 cell size :
        i : 0.000224525 .. 0.000224525
        j : 0.000397421 .. 0.000397421
        k : 0.000650175 .. 0.000650175

    Block 444 cell size :
        i : 0.000295767 .. 0.000295767
        j : 0.000369048 .. 0.000369048
        k : 0.000697126 .. 0.000697126

    Block 445 cell size :
        i : 0.000295767 .. 0.000295767
        j : 0.000430467 .. 0.000430467
        k : 0.000697126 .. 0.000697126

    Block 446 cell size :
        i : 0.000295767 .. 0.000295767
        j : 0.000217708 .. 0.000217708
        k : 0.000756701 .. 0.000756701

    Block 447 cell size :
        i : 0.000295767 .. 0.000295767
        j : 0.000375348 .. 0.000375348
        k : 0.000779227 .. 0.000779227

    Block 448 cell size :
        i : 0.000295767 .. 0.000295767
        j : 0.000327002 .. 0.000327002
        k : 0.000779227 .. 0.000779227

    Block 449 cell size :
        i : 0.000295767 .. 0.000295767
        j : 0.000507847 .. 0.000507847
        k : 0.000750681 .. 0.000750681

    Block 450 cell size :
        i : 0.000295767 .. 0.000295767
        j : 0.000380921 .. 0.000380921
        k : 0.000688814 .. 0.000688814

    Block 451 cell size :
        i : 0.000295767 .. 0.000295767
        j : 0.000320758 .. 0.000320758
        k : 0.000688814 .. 0.000688814

    Block 452 cell size :
        i : 0.000295765 .. 0.000295765
        j : 0.000300618 .. 0.000300618
        k : 0.000632133 .. 0.000632133

    Block 453 cell size :
        i : 0.000295766 .. 0.000295766
        j : 0.000374146 .. 0.000374146
        k : 0.000615885 .. 0.000615885

    Block 454 cell size :
        i : 0.000295767 .. 0.000295767
        j : 0.00036137 .. 0.00036137
        k : 0.000615885 .. 0.000615885

    Block 455 cell size :
        i : 0.000224523 .. 0.000224523
        j : 0.000399949 .. 0.000399949
        k : 0.000650168 .. 0.000650168

    Block 456 cell size :
        i : 0.000295766 .. 0.000295766
        j : 0.000369046 .. 0.000369046
        k : 0.000697135 .. 0.000697135

    Block 457 cell size :
        i : 0.000295767 .. 0.000295767
        j : 0.000432296 .. 0.000432296
        k : 0.000697135 .. 0.000697135

    Block 458 cell size :
        i : 0.000295767 .. 0.000295767
        j : 0.000215221 .. 0.000215221
        k : 0.000756713 .. 0.000756713

    Block 459 cell size :
        i : 0.000295765 .. 0.000295765
        j : 0.000375349 .. 0.000375349
        k : 0.000779218 .. 0.000779218

    Block 460 cell size :
        i : 0.000295767 .. 0.000295767
        j : 0.000329462 .. 0.000329462
        k : 0.000779218 .. 0.000779218

    Block 461 cell size :
        i : 0.000295767 .. 0.000295767
        j : 0.000508497 .. 0.000508497
        k : 0.000750668 .. 0.000750668

    Block 462 cell size :
        i : 0.000295765 .. 0.000295765
        j : 0.000380924 .. 0.000380924
        k : 0.000688822 .. 0.000688822

    Block 463 cell size :
        i : 0.000295767 .. 0.000295767
        j : 0.000323103 .. 0.000323103
        k : 0.000688822 .. 0.000688822

    Block 464 cell size :
        i : 0.000295768 .. 0.000295768
        j : 0.000300791 .. 0.000300791
        k : 0.000632132 .. 0.000632132

    Block 465 cell size :
        i : 0.000295767 .. 0.000295767
        j : 0.000374145 .. 0.000374145
        k : 0.000615886 .. 0.000615886

    Block 466 cell size :
        i : 0.000295766 .. 0.000295766
        j : 0.000367654 .. 0.000367654
        k : 0.000615886 .. 0.000615886

    Block 467 cell size :
        i : 0.000224524 .. 0.000224524
        j : 0.000402407 .. 0.000402407
        k : 0.000650172 .. 0.000650172

    Block 468 cell size :
        i : 0.000295767 .. 0.000295767
        j : 0.000369048 .. 0.000369048
        k : 0.000697126 .. 0.000697126

    Block 469 cell size :
        i : 0.000295766 .. 0.000295766
        j : 0.000433982 .. 0.000433982
        k : 0.000697126 .. 0.000697126

    Block 470 cell size :
        i : 0.000295767 .. 0.000295767
        j : 0.000212643 .. 0.000212643
        k : 0.000756698 .. 0.000756698

    Block 471 cell size :
        i : 0.000295768 .. 0.000295768
        j : 0.000375349 .. 0.000375349
        k : 0.000779224 .. 0.000779224

    Block 472 cell size :
        i : 0.000295765 .. 0.000295765
        j : 0.000331895 .. 0.000331895
        k : 0.000779224 .. 0.000779224

    Block 473 cell size :
        i : 0.000295769 .. 0.000295769
        j : 0.000508794 .. 0.000508794
        k : 0.000750673 .. 0.000750673

    Block 474 cell size :
        i : 0.000295769 .. 0.000295769
        j : 0.000380923 .. 0.000380923
        k : 0.000688818 .. 0.000688818

    Block 475 cell size :
        i : 0.000295765 .. 0.000295765
        j : 0.000325453 .. 0.000325453
        k : 0.000688818 .. 0.000688818

    Block 476 cell size :
        i : 0.000295768 .. 0.000295768
        j : 0.000300884 .. 0.000300884
        k : 0.000632135 .. 0.000632135

    Block 477 cell size :
        i : 0.000295767 .. 0.000295767
        j : 0.000374145 .. 0.000374145
        k : 0.000615882 .. 0.000615882

    Block 478 cell size :
        i : 0.000295767 .. 0.000295767
        j : 0.000374106 .. 0.000374106
        k : 0.000615882 .. 0.000615882

    Block 479 cell size :
        i : 0.000224522 .. 0.000224522
        j : 0.000404804 .. 0.000404804
        k : 0.000650175 .. 0.000650175

    Block 480 cell size :
        i : 0.000295765 .. 0.000295765
        j : 0.000369048 .. 0.000369048
        k : 0.000697129 .. 0.000697129

    Block 481 cell size :
        i : 0.000295767 .. 0.000295767
        j : 0.000435521 .. 0.000435521
        k : 0.000697129 .. 0.000697129

    Block 482 cell size :
        i : 0.000295767 .. 0.000295767
        j : 0.00020997 .. 0.00020997
        k : 0.000756706 .. 0.000756706

    Block 483 cell size :
        i : 0.000295768 .. 0.000295768
        j : 0.000375349 .. 0.000375349
        k : 0.000779228 .. 0.000779228

    Block 484 cell size :
        i : 0.000295768 .. 0.000295768
        j : 0.000334301 .. 0.000334301
        k : 0.000779228 .. 0.000779228

    Block 485 cell size :
        i : 0.000295766 .. 0.000295766
        j : 0.000508733 .. 0.000508733
        k : 0.000750677 .. 0.000750677

    Block 486 cell size :
        i : 0.000295766 .. 0.000295766
        j : 0.000380921 .. 0.000380921
        k : 0.000688819 .. 0.000688819

    Block 487 cell size :
        i : 0.000295769 .. 0.000295769
        j : 0.000327806 .. 0.000327806
        k : 0.000688819 .. 0.000688819

    Block 488 cell size :
        i : 0.000295765 .. 0.000295765
        j : 0.0003009 .. 0.0003009
        k : 0.000632132 .. 0.000632132

    Block 489 cell size :
        i : 0.000295767 .. 0.000295767
        j : 0.000374145 .. 0.000374145
        k : 0.000615882 .. 0.000615882

    Block 490 cell size :
        i : 0.000295767 .. 0.000295767
        j : 0.000380732 .. 0.000380732
        k : 0.000615882 .. 0.000615882

    Block 491 cell size :
        i : 0.000224523 .. 0.000224523
        j : 0.00040713 .. 0.00040713
        k : 0.000650176 .. 0.000650176

    Block 492 cell size :
        i : 0.000295766 .. 0.000295766
        j : 0.000369046 .. 0.000369046
        k : 0.00069713 .. 0.00069713

    Block 493 cell size :
        i : 0.000295765 .. 0.000295765
        j : 0.00043692 .. 0.00043692
        k : 0.00069713 .. 0.00069713

    Block 494 cell size :
        i : 0.000295767 .. 0.000295767
        j : 0.000207206 .. 0.000207206
        k : 0.000756699 .. 0.000756699

    Block 495 cell size :
        i : 0.000295767 .. 0.000295767
        j : 0.000375347 .. 0.000375347
        k : 0.000779216 .. 0.000779216

    Block 496 cell size :
        i : 0.000295768 .. 0.000295768
        j : 0.000336673 .. 0.000336673
        k : 0.000779216 .. 0.000779216

    Block 497 cell size :
        i : 0.000295767 .. 0.000295767
        j : 0.000508313 .. 0.000508313
        k : 0.000750672 .. 0.000750672

    Block 498 cell size :
        i : 0.000295767 .. 0.000295767
        j : 0.000380923 .. 0.000380923
        k : 0.000688816 .. 0.000688816

    Block 499 cell size :
        i : 0.000295766 .. 0.000295766
        j : 0.000330169 .. 0.000330169
        k : 0.000688816 .. 0.000688816

    Block 500 cell size :
        i : 0.000295768 .. 0.000295768
        j : 0.000300829 .. 0.000300829
        k : 0.000632141 .. 0.000632141

    Block 501 cell size :
        i : 0.000295768 .. 0.000295768
        j : 0.000374145 .. 0.000374145
        k : 0.000615881 .. 0.000615881

    Block 502 cell size :
        i : 0.000295767 .. 0.000295767
        j : 0.000387535 .. 0.000387535
        k : 0.000615881 .. 0.000615881

    Block 503 cell size :
        i : 0.000224524 .. 0.000224524
        j : 0.000409388 .. 0.000409388
        k : 0.000650172 .. 0.000650172

    Block 504 cell size :
        i : 0.000295767 .. 0.000295767
        j : 0.000369048 .. 0.000369048
        k : 0.000697127 .. 0.000697127

    Block 505 cell size :
        i : 0.000295766 .. 0.000295766
        j : 0.000438174 .. 0.000438174
        k : 0.000697127 .. 0.000697127

    Block 506 cell size :
        i : 0.000295766 .. 0.000295766
        j : 0.000204346 .. 0.000204346
        k : 0.000756709 .. 0.000756709

    Block 507 cell size :
        i : 0.000295768 .. 0.000295768
        j : 0.000375348 .. 0.000375348
        k : 0.000779227 .. 0.000779227

    Block 508 cell size :
        i : 0.000295767 .. 0.000295767
        j : 0.000339019 .. 0.000339019
        k : 0.000779227 .. 0.000779227

    Block 509 cell size :
        i : 0.000295767 .. 0.000295767
        j : 0.000507541 .. 0.000507541
        k : 0.000750672 .. 0.000750672

    Block 510 cell size :
        i : 0.000295769 .. 0.000295769
        j : 0.000380923 .. 0.000380923
        k : 0.000688818 .. 0.000688818

    Block 511 cell size :
        i : 0.000295767 .. 0.000295767
        j : 0.000332538 .. 0.000332538
        k : 0.000688818 .. 0.000688818

    Block 512 cell size :
        i : 0.000295765 .. 0.000295765
        j : 0.000300682 .. 0.000300682
        k : 0.000632129 .. 0.000632129

    Block 513 cell size :
        i : 0.000295767 .. 0.000295767
        j : 0.000374146 .. 0.000374146
        k : 0.000615889 .. 0.000615889

    Block 514 cell size :
        i : 0.000295768 .. 0.000295768
        j : 0.000394513 .. 0.000394513
        k : 0.000615889 .. 0.000615889

    Block 515 cell size :
        i : 0.000224521 .. 0.000224521
        j : 0.000411583 .. 0.000411583
        k : 0.000650171 .. 0.000650171

    Block 516 cell size :
        i : 0.000295768 .. 0.000295768
        j : 0.000369048 .. 0.000369048
        k : 0.00142689 .. 0.00142689

    Block 517 cell size :
        i : 0.000295767 .. 0.000295767
        j : 0.000439283 .. 0.000439283
        k : 0.00142689 .. 0.00142689

    Block 518 cell size :
        i : 0.000295767 .. 0.000295767
        j : 0.000201396 .. 0.000201396
        k : 0.00154882 .. 0.00154882

    Block 519 cell size :
        i : 0.000295768 .. 0.000295768
        j : 0.000375348 .. 0.000375348
        k : 0.00159491 .. 0.00159491

    Block 520 cell size :
        i : 0.000295768 .. 0.000295768
        j : 0.00034133 .. 0.00034133
        k : 0.00159491 .. 0.00159491

    Block 521 cell size :
        i : 0.000295766 .. 0.000295766
        j : 0.000506405 .. 0.000506405
        k : 0.00153648 .. 0.00153648

    Block 522 cell size :
        i : 0.000295766 .. 0.000295766
        j : 0.000380921 .. 0.000380921
        k : 0.00140987 .. 0.00140987

    Block 523 cell size :
        i : 0.000295769 .. 0.000295769
        j : 0.000334912 .. 0.000334912
        k : 0.00140987 .. 0.00140987

    Block 524 cell size :
        i : 0.000295768 .. 0.000295768
        j : 0.000300448 .. 0.000300448
        k : 0.00129386 .. 0.00129386

    Block 525 cell size :
        i : 0.000295766 .. 0.000295766
        j : 0.000374146 .. 0.000374146
        k : 0.00126059 .. 0.00126059

    Block 526 cell size :
        i : 0.000295767 .. 0.000295767
        j : 0.000401672 .. 0.000401672
        k : 0.00126059 .. 0.00126059

    Block 527 cell size :
        i : 0.00022452 .. 0.00022452
        j : 0.000413711 .. 0.000413711
        k : 0.00133078 .. 0.00133078

    Block 528 cell size :
        i : 0.000295767 .. 0.000295767
        j : 0.000369046 .. 0.000369046
        k : 0.00142688 .. 0.00142688

    Block 529 cell size :
        i : 0.000295768 .. 0.000295768
        j : 0.000441106 .. 0.000441106
        k : 0.00142688 .. 0.00142688

    Block 530 cell size :
        i : 0.000295767 .. 0.000295767
        j : 0.000195056 .. 0.000195056
        k : 0.00154883 .. 0.00154883

    Block 531 cell size :
        i : 0.000295767 .. 0.000295767
        j : 0.000375349 .. 0.000375349
        k : 0.00159492 .. 0.00159492

    Block 532 cell size :
        i : 0.000295768 .. 0.000295768
        j : 0.000345963 .. 0.000345963
        k : 0.00159492 .. 0.00159492

    Block 533 cell size :
        i : 0.000295766 .. 0.000295766
        j : 0.00050297 .. 0.00050297
        k : 0.00153647 .. 0.00153647

    Block 534 cell size :
        i : 0.000295767 .. 0.000295767
        j : 0.000380923 .. 0.000380923
        k : 0.00140987 .. 0.00140987

    Block 535 cell size :
        i : 0.000295766 .. 0.000295766
        j : 0.000339795 .. 0.000339795
        k : 0.00140987 .. 0.00140987

    Block 536 cell size :
        i : 0.000295768 .. 0.000295768
        j : 0.00029972 .. 0.00029972
        k : 0.00129386 .. 0.00129386

    Block 537 cell size :
        i : 0.000295767 .. 0.000295767
        j : 0.000374145 .. 0.000374145
        k : 0.0012606 .. 0.0012606

    Block 538 cell size :
        i : 0.000295766 .. 0.000295766
        j : 0.000416894 .. 0.000416894
        k : 0.0012606 .. 0.0012606

    Block 539 cell size :
        i : 0.000224523 .. 0.000224523
        j : 0.000417854 .. 0.000417854
        k : 0.00133077 .. 0.00133077

    Block 540 cell size :
        i : 0.000295766 .. 0.000295766
        j : 0.000369048 .. 0.000369048
        k : 0.00142688 .. 0.00142688

    Block 541 cell size :
        i : 0.000295767 .. 0.000295767
        j : 0.000442327 .. 0.000442327
        k : 0.00142688 .. 0.00142688

    Block 542 cell size :
        i : 0.000295767 .. 0.000295767
        j : 0.000188329 .. 0.000188329
        k : 0.00154882 .. 0.00154882

    Block 543 cell size :
        i : 0.000295767 .. 0.000295767
        j : 0.000375346 .. 0.000375346
        k : 0.00159491 .. 0.00159491

    Block 544 cell size :
        i : 0.000295767 .. 0.000295767
        j : 0.00035047 .. 0.00035047
        k : 0.00159491 .. 0.00159491

    Block 545 cell size :
        i : 0.000295768 .. 0.000295768
[...]

    Block 1737 cell size :
        i : 0.000295767 .. 0.000295767
        j : 0.000374146 .. 0.000374146
        k : 0.000601888 .. 0.000601888

    Block 1738 cell size :
        i : 0.000295766 .. 0.000295766
        j : 0.000287173 .. 0.000287173
        k : 0.000601888 .. 0.000601888

    Block 1739 cell size :
        i : 0.000224524 .. 0.000224524
        j : 0.000345052 .. 0.000345052
        k : 0.000635399 .. 0.000635399

    Block 1740 cell size :
        i : 0.000295767 .. 0.000295767
        j : 0.000369048 .. 0.000369048
        k : 0.000681286 .. 0.000681286

    Block 1741 cell size :
        i : 0.000295767 .. 0.000295767
        j : 0.000323719 .. 0.000323719
        k : 0.000681286 .. 0.000681286

    Block 1742 cell size :
        i : 0.000295767 .. 0.000295767
        j : 0.000279968 .. 0.000279968
        k : 0.00073951 .. 0.00073951

    Block 1743 cell size :
        i : 0.000295768 .. 0.000295768
        j : 0.000375348 .. 0.000375348
        k : 0.000761512 .. 0.000761512

    Block 1744 cell size :
        i : 0.000295767 .. 0.000295767
        j : 0.000266588 .. 0.000266588
        k : 0.000761512 .. 0.000761512

    Block 1745 cell size :
        i : 0.000295767 .. 0.000295767
        j : 0.000344288 .. 0.000344288
        k : 0.000733613 .. 0.000733613

    Block 1746 cell size :
        i : 0.000295765 .. 0.000295765
        j : 0.000380921 .. 0.000380921
        k : 0.000673159 .. 0.000673159

    Block 1747 cell size :
        i : 0.000295767 .. 0.000295767
        j : 0.000252058 .. 0.000252058
        k : 0.000673159 .. 0.000673159

    Block 1748 cell size :
        i : 0.000295766 .. 0.000295766
        j : 0.000353331 .. 0.000353331
        k : 0.00061777 .. 0.00061777

    Block 1749 cell size :
        i : 0.000295767 .. 0.000295767
        j : 0.000374146 .. 0.000374146
        k : 0.000601888 .. 0.000601888

    Block 1750 cell size :
        i : 0.000295767 .. 0.000295767
        j : 0.000284833 .. 0.000284833
        k : 0.000601888 .. 0.000601888

    Block 1751 cell size :
        i : 0.000224524 .. 0.000224524
        j : 0.000339776 .. 0.000339776
        k : 0.000635394 .. 0.000635394

    Block 1752 cell size :
        i : 0.000295768 .. 0.000295768
        j : 0.000369048 .. 0.000369048
        k : 0.000681291 .. 0.000681291

    Block 1753 cell size :
        i : 0.000295767 .. 0.000295767
        j : 0.000318738 .. 0.000318738
        k : 0.000681291 .. 0.000681291

    Block 1754 cell size :
        i : 0.000295767 .. 0.000295767
        j : 0.000277813 .. 0.000277813
        k : 0.000739514 .. 0.000739514

    Block 1755 cell size :
        i : 0.000295767 .. 0.000295767
        j : 0.000375348 .. 0.000375348
        k : 0.000761519 .. 0.000761519

    Block 1756 cell size :
        i : 0.000295768 .. 0.000295768
        j : 0.000264251 .. 0.000264251
        k : 0.000761519 .. 0.000761519

    Block 1757 cell size :
        i : 0.000295766 .. 0.000295766
        j : 0.000336144 .. 0.000336144
        k : 0.000733618 .. 0.000733618

    Block 1758 cell size :
        i : 0.000295767 .. 0.000295767
        j : 0.000380921 .. 0.000380921
        k : 0.000673167 .. 0.000673167

    Block 1759 cell size :
        i : 0.000295765 .. 0.000295765
        j : 0.000251248 .. 0.000251248
        k : 0.000673167 .. 0.000673167

    Block 1760 cell size :
        i : 0.000295768 .. 0.000295768
        j : 0.000344322 .. 0.000344322
        k : 0.000617774 .. 0.000617774

    Block 1761 cell size :
        i : 0.000295767 .. 0.000295767
        j : 0.000374145 .. 0.000374145
        k : 0.000601883 .. 0.000601883

    Block 1762 cell size :
        i : 0.000295767 .. 0.000295767
        j : 0.00028239 .. 0.00028239
        k : 0.000601883 .. 0.000601883

    Block 1763 cell size :
        i : 0.000224522 .. 0.000224522
        j : 0.000334198 .. 0.000334198
        k : 0.000635399 .. 0.000635399

    Block 1764 cell size :
        i : 0.000295767 .. 0.000295767
        j : 0.000369048 .. 0.000369048
        k : 0.00068128 .. 0.00068128

    Block 1765 cell size :
        i : 0.000295768 .. 0.000295768
        j : 0.000313629 .. 0.000313629
        k : 0.00068128 .. 0.00068128

    Block 1766 cell size :
        i : 0.000295766 .. 0.000295766
        j : 0.000275686 .. 0.000275686
        k : 0.000739508 .. 0.000739508

    Block 1767 cell size :
        i : 0.000295766 .. 0.000295766
        j : 0.000375351 .. 0.000375351
        k : 0.000761517 .. 0.000761517

    Block 1768 cell size :
        i : 0.000295767 .. 0.000295767
        j : 0.000262064 .. 0.000262064
        k : 0.000761517 .. 0.000761517

    Block 1769 cell size :
        i : 0.000295766 .. 0.000295766
        j : 0.000327758 .. 0.000327758
        k : 0.000733619 .. 0.000733619

    Block 1770 cell size :
        i : 0.000295766 .. 0.000295766
        j : 0.000380921 .. 0.000380921
        k : 0.000673165 .. 0.000673165

    Block 1771 cell size :
        i : 0.000295767 .. 0.000295767
        j : 0.000250367 .. 0.000250367
        k : 0.000673165 .. 0.000673165

    Block 1772 cell size :
        i : 0.000295768 .. 0.000295768
        j : 0.000335116 .. 0.000335116
        k : 0.000617771 .. 0.000617771

    Block 1773 cell size :
        i : 0.000295767 .. 0.000295767
        j : 0.000374144 .. 0.000374144
        k : 0.000601894 .. 0.000601894

    Block 1774 cell size :
        i : 0.000295767 .. 0.000295767
        j : 0.00027984 .. 0.00027984
        k : 0.000601894 .. 0.000601894

    Block 1775 cell size :
        i : 0.00022452 .. 0.00022452
        j : 0.000328318 .. 0.000328318
        k : 0.000635405 .. 0.000635405

    Block 1776 cell size :
        i : 0.000295765 .. 0.000295765
        j : 0.000369046 .. 0.000369046
        k : 0.00068129 .. 0.00068129

    Block 1777 cell size :
        i : 0.000295767 .. 0.000295767
        j : 0.000308393 .. 0.000308393
        k : 0.00068129 .. 0.00068129

    Block 1778 cell size :
        i : 0.000295767 .. 0.000295767
        j : 0.000273594 .. 0.000273594
        k : 0.000739515 .. 0.000739515

    Block 1779 cell size :
        i : 0.000295767 .. 0.000295767
        j : 0.000375349 .. 0.000375349
        k : 0.000761517 .. 0.000761517

    Block 1780 cell size :
        i : 0.000295766 .. 0.000295766
        j : 0.000260031 .. 0.000260031
        k : 0.000761517 .. 0.000761517

    Block 1781 cell size :
        i : 0.000295768 .. 0.000295768
        j : 0.000319135 .. 0.000319135
        k : 0.000733618 .. 0.000733618

    Block 1782 cell size :
        i : 0.000295769 .. 0.000295769
        j : 0.000380923 .. 0.000380923
        k : 0.000673175 .. 0.000673175

    Block 1783 cell size :
        i : 0.000295766 .. 0.000295766
        j : 0.000249417 .. 0.000249417
        k : 0.000673175 .. 0.000673175

    Block 1784 cell size :
        i : 0.000295768 .. 0.000295768
        j : 0.000325713 .. 0.000325713
        k : 0.00061777 .. 0.00061777

    Block 1785 cell size :
        i : 0.000295766 .. 0.000295766
        j : 0.000374143 .. 0.000374143
        k : 0.000601894 .. 0.000601894

    Block 1786 cell size :
        i : 0.000295767 .. 0.000295767
        j : 0.000277192 .. 0.000277192
        k : 0.000601894 .. 0.000601894

    Block 1787 cell size :
        i : 0.000224521 .. 0.000224521
        j : 0.00032214 .. 0.00032214
        k : 0.000635395 .. 0.000635395

    Block 1788 cell size :
        i : 0.000295768 .. 0.000295768
        j : 0.000369048 .. 0.000369048
        k : 0.00068129 .. 0.00068129

    Block 1789 cell size :
        i : 0.000295765 .. 0.000295765
        j : 0.000303027 .. 0.000303027
        k : 0.00068129 .. 0.00068129

    Block 1790 cell size :
        i : 0.000295767 .. 0.000295767
        j : 0.000271537 .. 0.000271537
        k : 0.000739514 .. 0.000739514

    Block 1791 cell size :
        i : 0.000295768 .. 0.000295768
        j : 0.000375349 .. 0.000375349
        k : 0.000761521 .. 0.000761521

    Block 1792 cell size :
        i : 0.000295767 .. 0.000295767
        j : 0.000258171 .. 0.000258171
        k : 0.000761521 .. 0.000761521

    Block 1793 cell size :
        i : 0.000295767 .. 0.000295767
        j : 0.000310279 .. 0.000310279
        k : 0.000733616 .. 0.000733616

    Block 1794 cell size :
        i : 0.000295768 .. 0.000295768
        j : 0.000380923 .. 0.000380923
        k : 0.000673163 .. 0.000673163

    Block 1795 cell size :
        i : 0.000295769 .. 0.000295769
        j : 0.0002484 .. 0.0002484
        k : 0.000673163 .. 0.000673163

    Block 1796 cell size :
        i : 0.000295765 .. 0.000295765
        j : 0.000316114 .. 0.000316114
        k : 0.000617774 .. 0.000617774

    Block 1797 cell size :
        i : 0.000295767 .. 0.000295767
        j : 0.000374145 .. 0.000374145
        k : 0.000601889 .. 0.000601889

    Block 1798 cell size :
        i : 0.000295766 .. 0.000295766
        j : 0.000274441 .. 0.000274441
        k : 0.000601889 .. 0.000601889

    Block 1799 cell size :
        i : 0.000224522 .. 0.000224522
        j : 0.00031566 .. 0.00031566
        k : 0.000635409 .. 0.000635409

    Block 1800 cell size :
        i : 0.000295766 .. 0.000295766
        j : 0.000369048 .. 0.000369048
        k : 0.000681286 .. 0.000681286

    Block 1801 cell size :
        i : 0.000295768 .. 0.000295768
        j : 0.000297528 .. 0.000297528
        k : 0.000681286 .. 0.000681286

    Block 1802 cell size :
        i : 0.000295767 .. 0.000295767
        j : 0.000269524 .. 0.000269524
        k : 0.000739503 .. 0.000739503

    Block 1803 cell size :
        i : 0.000295768 .. 0.000295768
        j : 0.000375348 .. 0.000375348
        k : 0.000761516 .. 0.000761516

    Block 1804 cell size :
        i : 0.000295768 .. 0.000295768
        j : 0.000256484 .. 0.000256484
        k : 0.000761516 .. 0.000761516

    Block 1805 cell size :
        i : 0.000295765 .. 0.000295765
        j : 0.000301201 .. 0.000301201
        k : 0.000733616 .. 0.000733616

    Block 1806 cell size :
        i : 0.000295769 .. 0.000295769
        j : 0.000380923 .. 0.000380923
        k : 0.000673171 .. 0.000673171

    Block 1807 cell size :
        i : 0.000295768 .. 0.000295768
        j : 0.000247313 .. 0.000247313
        k : 0.000673171 .. 0.000673171

    Block 1808 cell size :
        i : 0.000295766 .. 0.000295766
        j : 0.000306317 .. 0.000306317
        k : 0.000617769 .. 0.000617769

    Block 1809 cell size :
        i : 0.000295767 .. 0.000295767
        j : 0.000374147 .. 0.000374147
        k : 0.000601887 .. 0.000601887

    Block 1810 cell size :
        i : 0.000295767 .. 0.000295767
        j : 0.000271592 .. 0.000271592
        k : 0.000601887 .. 0.000601887

    Block 1811 cell size :
        i : 0.000224522 .. 0.000224522
        j : 0.000308879 .. 0.000308879
        k : 0.000635398 .. 0.000635398

    Block 1812 cell size :
        i : 0.000295767 .. 0.000295767
        j : 0.000369048 .. 0.000369048
        k : 0.000681294 .. 0.000681294

    Block 1813 cell size :
        i : 0.000295766 .. 0.000295766
        j : 0.000291905 .. 0.000291905
        k : 0.000681294 .. 0.000681294

    Block 1814 cell size :
        i : 0.000295767 .. 0.000295767
        j : 0.000267559 .. 0.000267559
        k : 0.000739514 .. 0.000739514

    Block 1815 cell size :
        i : 0.000295767 .. 0.000295767
        j : 0.000375348 .. 0.000375348
        k : 0.000761517 .. 0.000761517

    Block 1816 cell size :
        i : 0.000295768 .. 0.000295768
        j : 0.000254991 .. 0.000254991
        k : 0.000761517 .. 0.000761517

    Block 1817 cell size :
        i : 0.000295766 .. 0.000295766
        j : 0.000291906 .. 0.000291906
        k : 0.000733619 .. 0.000733619

    Block 1818 cell size :
        i : 0.000295768 .. 0.000295768
        j : 0.000380921 .. 0.000380921
        k : 0.000673162 .. 0.000673162

    Block 1819 cell size :
        i : 0.000295769 .. 0.000295769
        j : 0.000246159 .. 0.000246159
        k : 0.000673162 .. 0.000673162

    Block 1820 cell size :
        i : 0.000295768 .. 0.000295768
        j : 0.000296322 .. 0.000296322
        k : 0.00061778 .. 0.00061778

    Block 1821 cell size :
        i : 0.000295767 .. 0.000295767
        j : 0.000374145 .. 0.000374145
        k : 0.000601885 .. 0.000601885

    Block 1822 cell size :
        i : 0.000295767 .. 0.000295767
        j : 0.000268646 .. 0.000268646
        k : 0.000601885 .. 0.000601885

    Block 1823 cell size :
        i : 0.000224522 .. 0.000224522
        j : 0.000301797 .. 0.000301797
        k : 0.000635396 .. 0.000635396

    Block 1824 cell size :
        i : 0.000295767 .. 0.000295767
        j : 0.000369048 .. 0.000369048
        k : 0.000681291 .. 0.000681291

    Block 1825 cell size :
        i : 0.000295767 .. 0.000295767
        j : 0.000286152 .. 0.000286152
        k : 0.000681291 .. 0.000681291

    Block 1826 cell size :
        i : 0.000295767 .. 0.000295767
        j : 0.000265647 .. 0.000265647
        k : 0.000739516 .. 0.000739516

    Block 1827 cell size :
        i : 0.000295765 .. 0.000295765
        j : 0.000375348 .. 0.000375348
        k : 0.000761517 .. 0.000761517

    Block 1828 cell size :
        i : 0.000295767 .. 0.000295767
        j : 0.000253696 .. 0.000253696
        k : 0.000761517 .. 0.000761517

    Block 1829 cell size :
        i : 0.000295766 .. 0.000295766
        j : 0.000282407 .. 0.000282407
        k : 0.000733617 .. 0.000733617

    Block 1830 cell size :
        i : 0.000295767 .. 0.000295767
        j : 0.000380921 .. 0.000380921
        k : 0.000673167 .. 0.000673167

    Block 1831 cell size :
        i : 0.000295768 .. 0.000295768
        j : 0.00024494 .. 0.00024494
        k : 0.000673167 .. 0.000673167

    Block 1832 cell size :
        i : 0.000295767 .. 0.000295767
        j : 0.000286129 .. 0.000286129
        k : 0.000617766 .. 0.000617766

    Block 1833 cell size :
        i : 0.000295767 .. 0.000295767
        j : 0.000374145 .. 0.000374145
        k : 0.000601893 .. 0.000601893

    Block 1834 cell size :
        i : 0.000295767 .. 0.000295767
        j : 0.000265609 .. 0.000265609
        k : 0.000601893 .. 0.000601893

    Block 1835 cell size :
        i : 0.000224522 .. 0.000224522
        j : 0.000294419 .. 0.000294419
        k : 0.0006354 .. 0.0006354

    Block 1836 cell size :
        i : 0.000295766 .. 0.000295766
        j : 0.000369046 .. 0.000369046
        k : 0.00068129 .. 0.00068129

    Block 1837 cell size :
        i : 0.000295767 .. 0.000295767
        j : 0.000280272 .. 0.000280272
        k : 0.00068129 .. 0.00068129

    Block 1838 cell size :
        i : 0.000295767 .. 0.000295767
        j : 0.000263793 .. 0.000263793
        k : 0.000739506 .. 0.000739506

    Block 1839 cell size :
        i : 0.000295765 .. 0.000295765
        j : 0.00037535 .. 0.00037535
        k : 0.000761516 .. 0.000761516

    Block 1840 cell size :
        i : 0.000295765 .. 0.000295765
        j : 0.000252615 .. 0.000252615
        k : 0.000761516 .. 0.000761516

    Block 1841 cell size :
        i : 0.000295767 .. 0.000295767
        j : 0.000272716 .. 0.000272716
        k : 0.000733612 .. 0.000733612

    Block 1842 cell size :
        i : 0.000295767 .. 0.000295767
        j : 0.000380923 .. 0.000380923
        k : 0.000673168 .. 0.000673168

    Block 1843 cell size :
        i : 0.000295767 .. 0.000295767
        j : 0.000243654 .. 0.000243654
        k : 0.000673168 .. 0.000673168

    Block 1844 cell size :
        i : 0.000295767 .. 0.000295767
        j : 0.000275742 .. 0.000275742
        k : 0.000617771 .. 0.000617771

    Block 1845 cell size :
        i : 0.000295767 .. 0.000295767
        j : 0.000374143 .. 0.000374143
        k : 0.00060189 .. 0.00060189

    Block 1846 cell size :
        i : 0.000295767 .. 0.000295767
        j : 0.000262481 .. 0.000262481
        k : 0.00060189 .. 0.00060189

    Block 1847 cell size :
        i : 0.000224522 .. 0.000224522
        j : 0.000286739 .. 0.000286739
        k : 0.000635401 .. 0.000635401

    Block 1848 cell size :
        i : 0.000295768 .. 0.000295768
        j : 0.000369048 .. 0.000369048
        k : 0.000681285 .. 0.000681285

    Block 1849 cell size :
        i : 0.000295766 .. 0.000295766
        j : 0.000274262 .. 0.000274262
        k : 0.000681285 .. 0.000681285

    Block 1850 cell size :
        i : 0.000295767 .. 0.000295767
        j : 0.000262008 .. 0.000262008
        k : 0.000739513 .. 0.000739513

    Block 1851 cell size :
        i : 0.000295767 .. 0.000295767
        j : 0.000375348 .. 0.000375348
        k : 0.00076152 .. 0.00076152

    Block 1852 cell size :
        i : 0.000295765 .. 0.000295765
        j : 0.000251753 .. 0.000251753
        k : 0.00076152 .. 0.00076152

    Block 1853 cell size :
        i : 0.000295768 .. 0.000295768
        j : 0.000262843 .. 0.000262843
        k : 0.000733625 .. 0.000733625

    Block 1854 cell size :
        i : 0.000295769 .. 0.000295769
        j : 0.000380923 .. 0.000380923
        k : 0.000673164 .. 0.000673164

    Block 1855 cell size :
        i : 0.000295767 .. 0.000295767
        j : 0.000242299 .. 0.000242299
        k : 0.000673164 .. 0.000673164

    Block 1856 cell size :
        i : 0.000295767 .. 0.000295767
        j : 0.000265157 .. 0.000265157
        k : 0.000617769 .. 0.000617769

    Block 1857 cell size :
        i : 0.000295767 .. 0.000295767
        j : 0.000374145 .. 0.000374145
        k : 0.000601889 .. 0.000601889

    Block 1858 cell size :
        i : 0.000295767 .. 0.000295767
        j : 0.000259263 .. 0.000259263
        k : 0.000601889 .. 0.000601889

    Block 1859 cell size :
        i : 0.000224523 .. 0.000224523
        j : 0.000278761 .. 0.000278761
        k : 0.000635396 .. 0.000635396

    Block 1860 cell size :
        i : 0.000295767 .. 0.000295767
        j : 0.000369048 .. 0.000369048
        k : 0.000681291 .. 0.000681291

    Block 1861 cell size :
        i : 0.000295768 .. 0.000295768
        j : 0.00026812 .. 0.00026812
        k : 0.000681291 .. 0.000681291

    Block 1862 cell size :
        i : 0.000295767 .. 0.000295767
        j : 0.000260291 .. 0.000260291
        k : 0.000739508 .. 0.000739508

    Block 1863 cell size :
        i : 0.000295767 .. 0.000295767
        j : 0.000375347 .. 0.000375347
        k : 0.000761516 .. 0.000761516

    Block 1864 cell size :
        i : 0.000295767 .. 0.000295767
        j : 0.00025113 .. 0.00025113
        k : 0.000761516 .. 0.000761516

    Block 1865 cell size :
        i : 0.000295766 .. 0.000295766
        j : 0.000252813 .. 0.000252813
        k : 0.000733617 .. 0.000733617

    Block 1866 cell size :
        i : 0.000295767 .. 0.000295767
        j : 0.000380923 .. 0.000380923
        k : 0.000673168 .. 0.000673168

    Block 1867 cell size :
        i : 0.000295769 .. 0.000295769
        j : 0.000240878 .. 0.000240878
        k : 0.000673168 .. 0.000673168

    Block 1868 cell size :
        i : 0.000295765 .. 0.000295765
        j : 0.000254382 .. 0.000254382
        k : 0.000617777 .. 0.000617777

    Block 1869 cell size :
        i : 0.000295767 .. 0.000295767
        j : 0.000374144 .. 0.000374144
        k : 0.00060189 .. 0.00060189

    Block 1870 cell size :
        i : 0.000295767 .. 0.000295767
        j : 0.000255963 .. 0.000255963
        k : 0.00060189 .. 0.00060189

    Block 1871 cell size :
        i : 0.000224521 .. 0.000224521
        j : 0.000270485 .. 0.000270485
        k : 0.000635402 .. 0.000635402


There are no merge patch pairs

Writing polyMesh with 0 cellZones
----------------
Mesh Information
----------------
  boundingBox: (-0.0152755 -0.0154443 -0.0024784) (0.0158044 0.0159197 0.0232575)
  nPoints: 32813
  nCells: 29952
  nFaces: 92544
  nInternalFaces: 87168
----------------
Patches
----------------
  patch 0 (start: 87168 size: 192) name: inlet
  patch 1 (start: 87360 size: 192) name: outlet
  patch 2 (start: 87552 size: 4992) name: wall

End

