# mpiexec: MPI is /apps/mpi/intel/2019.6.166
# mpiexec: RDMA network found -- using rdma+shared memory (FI_VERBS_IFACE=ib0)
# mpiexec: bootstrapping with ssh
# mpiexec: full path to program is /apps/OpenFOAM/OpenFOAM-v1906/platforms/linux64GccDPInt32Opt/bin/pimpleFoam
# mpiexec: program arguments are: -parallel
# mpiexec: 96 ranks allocated via PBS select
# mpiexec: 1 OpenMP threads / rank allocated by PBS select
# mpiexec: Job has shared use of the allocated nodes. Disabling process-pinning
# mpiexec: machinefile configured as:
cx2-2-7-4.cx2.hpc.ic.ac.uk:24
cx2-2-7-7.cx2.hpc.ic.ac.uk:24
cx2-3-2-0.cx2.hpc.ic.ac.uk:24
cx2-3-3-5.cx2.hpc.ic.ac.uk:24
#
# mpiexec: Checking all nodes are ONLINE:
# mpiexec: All nodes appear ONLINE
# mpiexec: launch started at Wed 12 May 08:26:45 BST 2021
# mpiexec: launching program...
# /apps/OpenFOAM/OpenFOAM-v1906/platforms/linux64GccDPInt32Opt/bin/pimpleFoam -parallel
(cx2-2-7-4.cx2.hpc.ic.ac.uk:0,1,2,3,4,5,6,7,8,9,10,11,12,13,14,15,16,17,18,19,20,21,22,23)
(cx2-2-7-7.cx2.hpc.ic.ac.uk:24,25,26,27,28,29,30,31,32,33,34,35,36,37,38,39,40,41,42,43,44,45,46,47)
(cx2-3-2-0.cx2.hpc.ic.ac.uk:48,49,50,51,52,53,54,55,56,57,58,59,60,61,62,63,64,65,66,67,68,69,70,71)
(cx2-3-3-5.cx2.hpc.ic.ac.uk:72,73,74,75,76,77,78,79,80,81,82,83,84,85,86,87,88,89,90,91,92,93,94,95)

/*---------------------------------------------------------------------------*\
| =========                 |                                                 |
| \\      /  F ield         | OpenFOAM: The Open Source CFD Toolbox           |
|  \\    /   O peration     | Version:  v1906                                 |
|   \\  /    A nd           | Web:      www.OpenFOAM.com                      |
|    \\/     M anipulation  |                                                 |
\*---------------------------------------------------------------------------*/
Build  : v1906 OPENFOAM=1906
Arch   : "LSB;label=32;scalar=64"
Exec   : /apps/OpenFOAM/OpenFOAM-v1906/platforms/linux64GccDPInt32Opt/bin/pimpleFoam -parallel
Date   : May 12 2021
Time   : 08:27:27
Host   : cx2-2-7-4.cx2.hpc.ic.ac.uk
PID    : 286901
I/O    : uncollated
Case   : /rds/general/user/nmehboob/home/03-reactor
nProcs : 96
Hosts  :
(
    (cx2-2-7-4.cx2.hpc.ic.ac.uk 24)
    (cx2-2-7-7.cx2.hpc.ic.ac.uk 24)
    (cx2-3-2-0.cx2.hpc.ic.ac.uk 24)
    (cx2-3-3-5.cx2.hpc.ic.ac.uk 24)
)
Pstream initialized with:
    floatTransfer      : 0
    nProcsSimpleSum    : 0
    commsType          : nonBlocking
    polling iterations : 0
trapFpe: Floating point exception trapping enabled (FOAM_SIGFPE).
fileModificationChecking : Monitoring run-time modified files using timeStampMaster (fileModificationSkew 10)
allowSystemOperations : Allowing user-supplied system call operations

// * * * * * * * * * * * * * * * * * * * * * * * * * * * * * * * * * * * * * //
Create time

Create mesh for time = 0


PIMPLE: max iterations = 70
    field p	: relTol 0, tolerance 0.001
    field U	: relTol 0, tolerance 0.0001

Reading field p

Reading field U

Reading/calculating face flux field phi

Selecting incompressible transport model Newtonian
Selecting turbulence model type RAS
Selecting RAS turbulence model kEpsilon
RAS
{
    RASModel        kEpsilon;
    turbulence      on;
    printCoeffs     on;
    Cmu             0.09;
    C1              1.44;
    C2              1.92;
    C3              0;
    sigmak          1;
    sigmaEps        1.3;
}

No MRF models present

No finite volume options present
Courant Number mean: 0 max: 0

Starting time loop

Courant Number mean: 0 max: 0
deltaT = 0.000588235
Time = 0.000588235

PIMPLE: iteration 1
DILUPBiCGStab:  Solving for Ux, Initial residual = 1, Final residual = 0.0249058, No Iterations 1
DILUPBiCGStab:  Solving for Uy, Initial residual = 1, Final residual = 0.0353442, No Iterations 1
DILUPBiCGStab:  Solving for Uz, Initial residual = 1, Final residual = 0.0330202, No Iterations 1
GAMG:  Solving for p, Initial residual = 1, Final residual = 0.00442155, No Iterations 5
GAMG:  Solving for p, Initial residual = 0.322345, Final residual = 0.00321849, No Iterations 2
GAMG:  Solving for p, Initial residual = 0.021493, Final residual = 0.000195088, No Iterations 3
GAMG:  Solving for p, Initial residual = 0.00325271, Final residual = 9.37285e-05, No Iterations 2
time step continuity errors : sum local = 9.49067e-11, global = 3.26705e-24, cumulative = 3.26705e-24
GAMG:  Solving for p, Initial residual = 0.350544, Final residual = 0.00113464, No Iterations 5
GAMG:  Solving for p, Initial residual = 0.258495, Final residual = 0.000808448, No Iterations 3
GAMG:  Solving for p, Initial residual = 0.0268798, Final residual = 0.00016656, No Iterations 3
GAMG:  Solving for p, Initial residual = 0.00298061, Final residual = 8.30085e-05, No Iterations 2
time step continuity errors : sum local = 4.8066e-11, global = -2.49055e-17, cumulative = -2.49055e-17
GAMG:  Solving for p, Initial residual = 0.174685, Final residual = 0.00109509, No Iterations 3
GAMG:  Solving for p, Initial residual = 0.0164761, Final residual = 0.000118165, No Iterations 3
GAMG:  Solving for p, Initial residual = 0.00196198, Final residual = 6.14668e-05, No Iterations 2
GAMG:  Solving for p, Initial residual = 0.000428313, Final residual = 3.46134e-05, No Iterations 1
time step continuity errors : sum local = 1.71146e-11, global = 7.16957e-17, cumulative = 4.67902e-17
PIMPLE: iteration 2
DILUPBiCGStab:  Solving for Ux, Initial residual = 0.0389802, Final residual = 0.00161901, No Iterations 1
DILUPBiCGStab:  Solving for Uy, Initial residual = 0.221147, Final residual = 0.00988219, No Iterations 1
DILUPBiCGStab:  Solving for Uz, Initial residual = 0.132558, Final residual = 0.00712161, No Iterations 1
GAMG:  Solving for p, Initial residual = 0.199944, Final residual = 0.000716236, No Iterations 4
GAMG:  Solving for p, Initial residual = 0.0505409, Final residual = 0.000159907, No Iterations 3
GAMG:  Solving for p, Initial residual = 0.00410483, Final residual = 6.8387e-05, No Iterations 2
GAMG:  Solving for p, Initial residual = 0.000421805, Final residual = 4.31995e-05, No Iterations 1
time step continuity errors : sum local = 2.17007e-11, global = -1.94584e-15, cumulative = -1.89905e-15
GAMG:  Solving for p, Initial residual = 0.100435, Final residual = 0.000488868, No Iterations 4
GAMG:  Solving for p, Initial residual = 0.0348701, Final residual = 0.000114727, No Iterations 3
GAMG:  Solving for p, Initial residual = 0.00277543, Final residual = 4.7977e-05, No Iterations 2
GAMG:  Solving for p, Initial residual = 0.00028848, Final residual = 3.1244e-05, No Iterations 1
time step continuity errors : sum local = 1.5248e-11, global = -1.4982e-15, cumulative = -3.39725e-15
GAMG:  Solving for p, Initial residual = 0.025415, Final residual = 0.000130577, No Iterations 3
GAMG:  Solving for p, Initial residual = 0.00239048, Final residual = 3.64314e-05, No Iterations 2
GAMG:  Solving for p, Initial residual = 0.000268343, Final residual = 2.33105e-05, No Iterations 1
GAMG:  Solving for p, Initial residual = 4.84483e-05, Final residual = 4.84483e-05, No Iterations 0
time step continuity errors : sum local = 2.37227e-11, global = -5.99956e-16, cumulative = -3.99721e-15
PIMPLE: iteration 3
DILUPBiCGStab:  Solving for Ux, Initial residual = 0.00438158, Final residual = 0.000180073, No Iterations 1
DILUPBiCGStab:  Solving for Uy, Initial residual = 0.0270497, Final residual = 0.00116492, No Iterations 1
DILUPBiCGStab:  Solving for Uz, Initial residual = 0.0164376, Final residual = 0.000721223, No Iterations 1
GAMG:  Solving for p, Initial residual = 0.0493176, Final residual = 0.000350536, No Iterations 3
GAMG:  Solving for p, Initial residual = 0.00679036, Final residual = 9.14542e-05, No Iterations 2
GAMG:  Solving for p, Initial residual = 0.000590062, Final residual = 5.27381e-05, No Iterations 1
GAMG:  Solving for p, Initial residual = 9.8622e-05, Final residual = 9.8622e-05, No Iterations 0
time step continuity errors : sum local = 4.88208e-11, global = 2.13398e-16, cumulative = -3.78381e-15
GAMG:  Solving for p, Initial residual = 0.0242249, Final residual = 0.000201474, No Iterations 3
GAMG:  Solving for p, Initial residual = 0.00391432, Final residual = 5.49026e-05, No Iterations 2
GAMG:  Solving for p, Initial residual = 0.000344774, Final residual = 3.08677e-05, No Iterations 1
GAMG:  Solving for p, Initial residual = 6.10461e-05, Final residual = 6.10461e-05, No Iterations 0
time step continuity errors : sum local = 3.00325e-11, global = 9.26636e-16, cumulative = -2.85717e-15
GAMG:  Solving for p, Initial residual = 0.00670631, Final residual = 3.1617e-05, No Iterations 3
GAMG:  Solving for p, Initial residual = 0.000582056, Final residual = 2.77357e-05, No Iterations 1
GAMG:  Solving for p, Initial residual = 6.73168e-05, Final residual = 6.73168e-05, No Iterations 0
GAMG:  Solving for p, Initial residual = 6.73168e-05, Final residual = 6.73168e-05, No Iterations 0
time step continuity errors : sum local = 3.30449e-11, global = 1.936e-15, cumulative = -9.21168e-16
PIMPLE: iteration 4
DILUPBiCGStab:  Solving for Ux, Initial residual = 0.000904441, Final residual = 2.88939e-05, No Iterations 1
DILUPBiCGStab:  Solving for Uy, Initial residual = 0.00558562, Final residual = 0.000206819, No Iterations 1
DILUPBiCGStab:  Solving for Uz, Initial residual = 0.00363538, Final residual = 0.000122379, No Iterations 1
GAMG:  Solving for p, Initial residual = 0.01522, Final residual = 7.81746e-05, No Iterations 3
GAMG:  Solving for p, Initial residual = 0.00148085, Final residual = 6.88629e-05, No Iterations 1
GAMG:  Solving for p, Initial residual = 0.000154832, Final residual = 2.37152e-05, No Iterations 1
GAMG:  Solving for p, Initial residual = 4.65717e-05, Final residual = 4.65717e-05, No Iterations 0
time step continuity errors : sum local = 2.27856e-11, global = 4.76809e-15, cumulative = 3.84692e-15
GAMG:  Solving for p, Initial residual = 0.00738276, Final residual = 4.00381e-05, No Iterations 3
GAMG:  Solving for p, Initial residual = 0.000709907, Final residual = 3.60846e-05, No Iterations 1
GAMG:  Solving for p, Initial residual = 8.21969e-05, Final residual = 8.21969e-05, No Iterations 0
GAMG:  Solving for p, Initial residual = 8.21969e-05, Final residual = 8.21969e-05, No Iterations 0
time step continuity errors : sum local = 4.02382e-11, global = 4.70283e-15, cumulative = 8.54975e-15
GAMG:  Solving for p, Initial residual = 0.00233699, Final residual = 4.10467e-05, No Iterations 2
GAMG:  Solving for p, Initial residual = 0.000209713, Final residual = 1.65132e-05, No Iterations 1
GAMG:  Solving for p, Initial residual = 2.97151e-05, Final residual = 2.97151e-05, No Iterations 0
GAMG:  Solving for p, Initial residual = 2.97151e-05, Final residual = 2.97151e-05, No Iterations 0
time step continuity errors : sum local = 1.45579e-11, global = 5.33616e-15, cumulative = 1.38859e-14
PIMPLE: iteration 5
DILUPBiCGStab:  Solving for Ux, Initial residual = 0.000299634, Final residual = 4.86591e-05, No Iterations 1
DILUPBiCGStab:  Solving for Uy, Initial residual = 0.00178178, Final residual = 5.57301e-05, No Iterations 1
DILUPBiCGStab:  Solving for Uz, Initial residual = 0.00116413, Final residual = 3.41983e-05, No Iterations 1
GAMG:  Solving for p, Initial residual = 0.00527728, Final residual = 8.12344e-05, No Iterations 2
GAMG:  Solving for p, Initial residual = 0.000469737, Final residual = 3.07875e-05, No Iterations 1
GAMG:  Solving for p, Initial residual = 5.85715e-05, Final residual = 5.85715e-05, No Iterations 0
GAMG:  Solving for p, Initial residual = 5.85715e-05, Final residual = 5.85715e-05, No Iterations 0
time step continuity errors : sum local = 2.87389e-11, global = 6.71092e-15, cumulative = 2.05968e-14
GAMG:  Solving for p, Initial residual = 0.00253306, Final residual = 3.98371e-05, No Iterations 2
GAMG:  Solving for p, Initial residual = 0.000192651, Final residual = 1.26648e-05, No Iterations 1
GAMG:  Solving for p, Initial residual = 2.55155e-05, Final residual = 2.55155e-05, No Iterations 0
GAMG:  Solving for p, Initial residual = 2.55155e-05, Final residual = 2.55155e-05, No Iterations 0
time step continuity errors : sum local = 1.25139e-11, global = 5.79608e-15, cumulative = 2.63929e-14
GAMG:  Solving for p, Initial residual = 0.000855126, Final residual = 7.50036e-05, No Iterations 1
GAMG:  Solving for p, Initial residual = 0.000114026, Final residual = 1.59357e-05, No Iterations 1
GAMG:  Solving for p, Initial residual = 2.22327e-05, Final residual = 2.22327e-05, No Iterations 0
GAMG:  Solving for p, Initial residual = 2.22327e-05, Final residual = 2.22327e-05, No Iterations 0
time step continuity errors : sum local = 1.09002e-11, global = 5.02322e-15, cumulative = 3.14161e-14
PIMPLE: iteration 6
DILUPBiCGStab:  Solving for Ux, Initial residual = 0.000110875, Final residual = 1.77454e-05, No Iterations 1
DILUPBiCGStab:  Solving for Uy, Initial residual = 0.000637447, Final residual = 1.8492e-05, No Iterations 1
DILUPBiCGStab:  Solving for Uz, Initial residual = 0.000431549, Final residual = 7.10519e-05, No Iterations 1
GAMG:  Solving for p, Initial residual = 0.00194716, Final residual = 2.93021e-05, No Iterations 2
GAMG:  Solving for p, Initial residual = 0.000171129, Final residual = 1.25557e-05, No Iterations 1
GAMG:  Solving for p, Initial residual = 2.32863e-05, Final residual = 2.32863e-05, No Iterations 0
GAMG:  Solving for p, Initial residual = 2.32863e-05, Final residual = 2.32863e-05, No Iterations 0
time step continuity errors : sum local = 1.14101e-11, global = 4.12516e-15, cumulative = 3.55413e-14
GAMG:  Solving for p, Initial residual = 0.00093866, Final residual = 6.89181e-05, No Iterations 1
GAMG:  Solving for p, Initial residual = 0.000101291, Final residual = 1.22848e-05, No Iterations 1
GAMG:  Solving for p, Initial residual = 1.66932e-05, Final residual = 1.66932e-05, No Iterations 0
GAMG:  Solving for p, Initial residual = 1.66932e-05, Final residual = 1.66932e-05, No Iterations 0
time step continuity errors : sum local = 8.18095e-12, global = 4.3025e-15, cumulative = 3.98438e-14
GAMG:  Solving for p, Initial residual = 0.000323517, Final residual = 2.86094e-05, No Iterations 1
GAMG:  Solving for p, Initial residual = 4.34628e-05, Final residual = 4.34628e-05, No Iterations 0
GAMG:  Solving for p, Initial residual = 4.34628e-05, Final residual = 4.34628e-05, No Iterations 0
GAMG:  Solving for p, Initial residual = 4.34628e-05, Final residual = 4.34628e-05, No Iterations 0
time step continuity errors : sum local = 2.13027e-11, global = 4.54599e-15, cumulative = 4.43898e-14
PIMPLE: iteration 7
DILUPBiCGStab:  Solving for Ux, Initial residual = 4.36385e-05, Final residual = 4.36385e-05, No Iterations 0
DILUPBiCGStab:  Solving for Uy, Initial residual = 0.000245064, Final residual = 3.95711e-05, No Iterations 1
DILUPBiCGStab:  Solving for Uz, Initial residual = 0.000164995, Final residual = 2.68315e-05, No Iterations 1
GAMG:  Solving for p, Initial residual = 0.00059941, Final residual = 5.91689e-05, No Iterations 1
GAMG:  Solving for p, Initial residual = 9.11285e-05, Final residual = 9.11285e-05, No Iterations 0
GAMG:  Solving for p, Initial residual = 9.11285e-05, Final residual = 9.11285e-05, No Iterations 0
GAMG:  Solving for p, Initial residual = 9.11285e-05, Final residual = 9.11285e-05, No Iterations 0
time step continuity errors : sum local = 4.4673e-11, global = 4.93006e-15, cumulative = 4.93198e-14
GAMG:  Solving for p, Initial residual = 0.000239649, Final residual = 1.82278e-05, No Iterations 1
GAMG:  Solving for p, Initial residual = 3.20834e-05, Final residual = 3.20834e-05, No Iterations 0
GAMG:  Solving for p, Initial residual = 3.20834e-05, Final residual = 3.20834e-05, No Iterations 0
GAMG:  Solving for p, Initial residual = 3.20834e-05, Final residual = 3.20834e-05, No Iterations 0
time step continuity errors : sum local = 1.57268e-11, global = 4.6267e-15, cumulative = 5.39465e-14
GAMG:  Solving for p, Initial residual = 0.000118498, Final residual = 1.33402e-05, No Iterations 1
GAMG:  Solving for p, Initial residual = 1.85677e-05, Final residual = 1.85677e-05, No Iterations 0
GAMG:  Solving for p, Initial residual = 1.85677e-05, Final residual = 1.85677e-05, No Iterations 0
GAMG:  Solving for p, Initial residual = 1.85677e-05, Final residual = 1.85677e-05, No Iterations 0
time step continuity errors : sum local = 9.1014e-12, global = 4.04214e-15, cumulative = 5.79887e-14
PIMPLE: iteration 8
DILUPBiCGStab:  Solving for Ux, Initial residual = 8.1628e-06, Final residual = 8.1628e-06, No Iterations 0
DILUPBiCGStab:  Solving for Uy, Initial residual = 0.000114373, Final residual = 1.82393e-05, No Iterations 1
DILUPBiCGStab:  Solving for Uz, Initial residual = 7.24514e-05, Final residual = 7.24514e-05, No Iterations 0
GAMG:  Solving for p, Initial residual = 0.000106648, Final residual = 1.1048e-05, No Iterations 1
GAMG:  Solving for p, Initial residual = 1.59039e-05, Final residual = 1.59039e-05, No Iterations 0
GAMG:  Solving for p, Initial residual = 1.59039e-05, Final residual = 1.59039e-05, No Iterations 0
GAMG:  Solving for p, Initial residual = 1.59039e-05, Final residual = 1.59039e-05, No Iterations 0
time step continuity errors : sum local = 7.79552e-12, global = 3.51132e-15, cumulative = 6.15e-14
GAMG:  Solving for p, Initial residual = 6.15714e-05, Final residual = 6.15714e-05, No Iterations 0
GAMG:  Solving for p, Initial residual = 6.15714e-05, Final residual = 6.15714e-05, No Iterations 0
GAMG:  Solving for p, Initial residual = 6.15714e-05, Final residual = 6.15714e-05, No Iterations 0
GAMG:  Solving for p, Initial residual = 6.15714e-05, Final residual = 6.15714e-05, No Iterations 0
time step continuity errors : sum local = 3.018e-11, global = 3.10434e-15, cumulative = 6.46043e-14
GAMG:  Solving for p, Initial residual = 0.000104147, Final residual = 8.57778e-06, No Iterations 1
GAMG:  Solving for p, Initial residual = 1.26876e-05, Final residual = 1.26876e-05, No Iterations 0
GAMG:  Solving for p, Initial residual = 1.26876e-05, Final residual = 1.26876e-05, No Iterations 0
GAMG:  Solving for p, Initial residual = 1.26876e-05, Final residual = 1.26876e-05, No Iterations 0
time step continuity errors : sum local = 6.21895e-12, global = 2.82734e-15, cumulative = 6.74317e-14
PIMPLE: iteration 9
DILUPBiCGStab:  Solving for Ux, Initial residual = 6.69757e-06, Final residual = 6.69757e-06, No Iterations 0
DILUPBiCGStab:  Solving for Uy, Initial residual = 4.9717e-05, Final residual = 4.9717e-05, No Iterations 0
DILUPBiCGStab:  Solving for Uz, Initial residual = 2.17458e-05, Final residual = 2.17458e-05, No Iterations 0
GAMG:  Solving for p, Initial residual = 2.78112e-05, Final residual = 2.78112e-05, No Iterations 0
GAMG:  Solving for p, Initial residual = 2.78112e-05, Final residual = 2.78112e-05, No Iterations 0
GAMG:  Solving for p, Initial residual = 2.78112e-05, Final residual = 2.78112e-05, No Iterations 0
GAMG:  Solving for p, Initial residual = 2.78112e-05, Final residual = 2.78112e-05, No Iterations 0
time step continuity errors : sum local = 1.3632e-11, global = 2.61107e-15, cumulative = 7.00427e-14
GAMG:  Solving for p, Initial residual = 3.93278e-05, Final residual = 3.93278e-05, No Iterations 0
GAMG:  Solving for p, Initial residual = 3.93278e-05, Final residual = 3.93278e-05, No Iterations 0
GAMG:  Solving for p, Initial residual = 3.93278e-05, Final residual = 3.93278e-05, No Iterations 0
GAMG:  Solving for p, Initial residual = 3.93278e-05, Final residual = 3.93278e-05, No Iterations 0
time step continuity errors : sum local = 1.9277e-11, global = 2.44384e-15, cumulative = 7.24866e-14
GAMG:  Solving for p, Initial residual = 4.90325e-05, Final residual = 4.90325e-05, No Iterations 0
GAMG:  Solving for p, Initial residual = 4.90325e-05, Final residual = 4.90325e-05, No Iterations 0
GAMG:  Solving for p, Initial residual = 4.90325e-05, Final residual = 4.90325e-05, No Iterations 0
GAMG:  Solving for p, Initial residual = 4.90325e-05, Final residual = 4.90325e-05, No Iterations 0
time step continuity errors : sum local = 2.4034e-11, global = 2.31325e-15, cumulative = 7.47998e-14
PIMPLE: iteration 10
DILUPBiCGStab:  Solving for Ux, Initial residual = 2.88911e-06, Final residual = 2.88911e-06, No Iterations 0
DILUPBiCGStab:  Solving for Uy, Initial residual = 1.78956e-05, Final residual = 1.78956e-05, No Iterations 0
DILUPBiCGStab:  Solving for Uz, Initial residual = 1.07966e-05, Final residual = 1.07966e-05, No Iterations 0
GAMG:  Solving for p, Initial residual = 5.49461e-05, Final residual = 5.49461e-05, No Iterations 0
GAMG:  Solving for p, Initial residual = 5.49461e-05, Final residual = 5.49461e-05, No Iterations 0
GAMG:  Solving for p, Initial residual = 5.49461e-05, Final residual = 5.49461e-05, No Iterations 0
GAMG:  Solving for p, Initial residual = 5.49461e-05, Final residual = 5.49461e-05, No Iterations 0
time step continuity errors : sum local = 2.69327e-11, global = 2.21023e-15, cumulative = 7.70101e-14
GAMG:  Solving for p, Initial residual = 5.99767e-05, Final residual = 5.99767e-05, No Iterations 0
GAMG:  Solving for p, Initial residual = 5.99767e-05, Final residual = 5.99767e-05, No Iterations 0
GAMG:  Solving for p, Initial residual = 5.99767e-05, Final residual = 5.99767e-05, No Iterations 0
GAMG:  Solving for p, Initial residual = 5.99767e-05, Final residual = 5.99767e-05, No Iterations 0
time step continuity errors : sum local = 2.93986e-11, global = 2.12859e-15, cumulative = 7.91387e-14
GAMG:  Solving for p, Initial residual = 6.38923e-05, Final residual = 6.38923e-05, No Iterations 0
GAMG:  Solving for p, Initial residual = 6.38923e-05, Final residual = 6.38923e-05, No Iterations 0
GAMG:  Solving for p, Initial residual = 6.38923e-05, Final residual = 6.38923e-05, No Iterations 0
GAMG:  Solving for p, Initial residual = 6.38923e-05, Final residual = 6.38923e-05, No Iterations 0
time step continuity errors : sum local = 3.13178e-11, global = 2.06334e-15, cumulative = 8.1202e-14
smoothSolver:  Solving for epsilon, Initial residual = 0.174896, Final residual = 3.94512e-07, No Iterations 10
smoothSolver:  Solving for k, Initial residual = 1, Final residual = 0.000245568, No Iterations 10
PIMPLE: converged in 10 iterations
ExecutionTime = 11.29 s  ClockTime = 17 s

scalarTransport execute: s
DILUPBiCGStab:  Solving for s, Initial residual = 1, Final residual = 3.4283e-05, No Iterations 1

scalarTransport execute: s
DILUPBiCGStab:  Solving for s, Initial residual = 0.999969, Final residual = 0.0293115, No Iterations 1

Courant Number mean: 5.83939e-06 max: 0.0258358
deltaT = 0.000723982
Time = 0.00131222

PIMPLE: iteration 1
DILUPBiCGStab:  Solving for Ux, Initial residual = 0.31598, Final residual = 0.0116293, No Iterations 1
DILUPBiCGStab:  Solving for Uy, Initial residual = 0.347452, Final residual = 0.0164294, No Iterations 1
DILUPBiCGStab:  Solving for Uz, Initial residual = 0.374526, Final residual = 0.0231289, No Iterations 1
GAMG:  Solving for p, Initial residual = 0.765147, Final residual = 0.00423582, No Iterations 3
GAMG:  Solving for p, Initial residual = 0.0360976, Final residual = 0.000181839, No Iterations 3
GAMG:  Solving for p, Initial residual = 0.0027981, Final residual = 4.83841e-05, No Iterations 2
GAMG:  Solving for p, Initial residual = 0.000282067, Final residual = 3.10446e-05, No Iterations 1
time step continuity errors : sum local = 3.53704e-11, global = 7.51942e-15, cumulative = 8.87214e-14
GAMG:  Solving for p, Initial residual = 0.45589, Final residual = 0.0015038, No Iterations 4
GAMG:  Solving for p, Initial residual = 0.0525624, Final residual = 0.000239863, No Iterations 3
GAMG:  Solving for p, Initial residual = 0.00453008, Final residual = 7.05543e-05, No Iterations 2
GAMG:  Solving for p, Initial residual = 0.000477506, Final residual = 4.65863e-05, No Iterations 1
time step continuity errors : sum local = 2.77235e-11, global = 7.63134e-15, cumulative = 9.63527e-14
GAMG:  Solving for p, Initial residual = 0.0550568, Final residual = 0.000245903, No Iterations 3
GAMG:  Solving for p, Initial residual = 0.00349815, Final residual = 6.21442e-05, No Iterations 2
GAMG:  Solving for p, Initial residual = 0.000365755, Final residual = 3.64768e-05, No Iterations 1
GAMG:  Solving for p, Initial residual = 7.28355e-05, Final residual = 7.28355e-05, No Iterations 0
time step continuity errors : sum local = 4.31834e-11, global = 7.52077e-15, cumulative = 1.03874e-13
PIMPLE: iteration 2
DILUPBiCGStab:  Solving for Ux, Initial residual = 0.00759937, Final residual = 0.000460577, No Iterations 1
DILUPBiCGStab:  Solving for Uy, Initial residual = 0.0371812, Final residual = 0.00158522, No Iterations 1
DILUPBiCGStab:  Solving for Uz, Initial residual = 0.016363, Final residual = 0.000924399, No Iterations 1
GAMG:  Solving for p, Initial residual = 0.163795, Final residual = 0.00105486, No Iterations 3
GAMG:  Solving for p, Initial residual = 0.0112014, Final residual = 9.25173e-05, No Iterations 3
GAMG:  Solving for p, Initial residual = 0.00105266, Final residual = 7.90523e-05, No Iterations 1
GAMG:  Solving for p, Initial residual = 0.00014698, Final residual = 3.67031e-05, No Iterations 1
time step continuity errors : sum local = 2.3289e-11, global = 7.42818e-15, cumulative = 1.11302e-13
GAMG:  Solving for p, Initial residual = 0.0796534, Final residual = 0.00067948, No Iterations 3
GAMG:  Solving for p, Initial residual = 0.00769044, Final residual = 6.07219e-05, No Iterations 3
GAMG:  Solving for p, Initial residual = 0.000723604, Final residual = 5.21639e-05, No Iterations 1
GAMG:  Solving for p, Initial residual = 9.67255e-05, Final residual = 9.67255e-05, No Iterations 0
time step continuity errors : sum local = 5.78791e-11, global = 7.53483e-15, cumulative = 1.18837e-13
GAMG:  Solving for p, Initial residual = 0.0115353, Final residual = 6.59575e-05, No Iterations 3
GAMG:  Solving for p, Initial residual = 0.000739945, Final residual = 5.27022e-05, No Iterations 1
GAMG:  Solving for p, Initial residual = 9.91741e-05, Final residual = 9.91741e-05, No Iterations 0
GAMG:  Solving for p, Initial residual = 9.91741e-05, Final residual = 9.91741e-05, No Iterations 0
time step continuity errors : sum local = 5.91443e-11, global = 7.67092e-15, cumulative = 1.26507e-13
PIMPLE: iteration 3
DILUPBiCGStab:  Solving for Ux, Initial residual = 0.000897932, Final residual = 5.73101e-05, No Iterations 1
DILUPBiCGStab:  Solving for Uy, Initial residual = 0.00645685, Final residual = 0.000286613, No Iterations 1
DILUPBiCGStab:  Solving for Uz, Initial residual = 0.00268081, Final residual = 0.00010166, No Iterations 1
GAMG:  Solving for p, Initial residual = 0.0262009, Final residual = 0.000193213, No Iterations 3
GAMG:  Solving for p, Initial residual = 0.00210403, Final residual = 5.32976e-05, No Iterations 2
GAMG:  Solving for p, Initial residual = 0.000224727, Final residual = 3.10264e-05, No Iterations 1
GAMG:  Solving for p, Initial residual = 6.07475e-05, Final residual = 6.07475e-05, No Iterations 0
time step continuity errors : sum local = 3.64737e-11, global = 8.15302e-15, cumulative = 1.3466e-13
GAMG:  Solving for p, Initial residual = 0.00902699, Final residual = 3.66986e-05, No Iterations 4
GAMG:  Solving for p, Initial residual = 0.00106513, Final residual = 5.83709e-05, No Iterations 1
GAMG:  Solving for p, Initial residual = 0.000112504, Final residual = 1.74842e-05, No Iterations 1
GAMG:  Solving for p, Initial residual = 2.90773e-05, Final residual = 2.90773e-05, No Iterations 0
time step continuity errors : sum local = 1.74122e-11, global = 8.21307e-15, cumulative = 1.42874e-13
GAMG:  Solving for p, Initial residual = 0.00222503, Final residual = 5.4355e-05, No Iterations 2
GAMG:  Solving for p, Initial residual = 0.000200327, Final residual = 2.71805e-05, No Iterations 1
GAMG:  Solving for p, Initial residual = 4.23267e-05, Final residual = 4.23267e-05, No Iterations 0
GAMG:  Solving for p, Initial residual = 4.23267e-05, Final residual = 4.23267e-05, No Iterations 0
time step continuity errors : sum local = 2.53371e-11, global = 8.25314e-15, cumulative = 1.51127e-13
PIMPLE: iteration 4
DILUPBiCGStab:  Solving for Ux, Initial residual = 0.000163186, Final residual = 3.6229e-05, No Iterations 1
DILUPBiCGStab:  Solving for Uy, Initial residual = 0.00122862, Final residual = 6.10899e-05, No Iterations 1
DILUPBiCGStab:  Solving for Uz, Initial residual = 0.000688411, Final residual = 2.72783e-05, No Iterations 1
GAMG:  Solving for p, Initial residual = 0.00585193, Final residual = 4.75293e-05, No Iterations 3
GAMG:  Solving for p, Initial residual = 0.000470445, Final residual = 3.66632e-05, No Iterations 1
GAMG:  Solving for p, Initial residual = 6.28268e-05, Final residual = 6.28268e-05, No Iterations 0
GAMG:  Solving for p, Initial residual = 6.28268e-05, Final residual = 6.28268e-05, No Iterations 0
time step continuity errors : sum local = 3.75512e-11, global = 8.48536e-15, cumulative = 1.59612e-13
GAMG:  Solving for p, Initial residual = 0.00197657, Final residual = 5.30083e-05, No Iterations 2
GAMG:  Solving for p, Initial residual = 0.000189836, Final residual = 2.40119e-05, No Iterations 1
GAMG:  Solving for p, Initial residual = 4.01625e-05, Final residual = 4.01625e-05, No Iterations 0
GAMG:  Solving for p, Initial residual = 4.01625e-05, Final residual = 4.01625e-05, No Iterations 0
time step continuity errors : sum local = 2.40173e-11, global = 8.51395e-15, cumulative = 1.68126e-13
GAMG:  Solving for p, Initial residual = 0.000565698, Final residual = 6.85217e-05, No Iterations 1
GAMG:  Solving for p, Initial residual = 9.54596e-05, Final residual = 9.54596e-05, No Iterations 0
GAMG:  Solving for p, Initial residual = 9.54596e-05, Final residual = 9.54596e-05, No Iterations 0
GAMG:  Solving for p, Initial residual = 9.54596e-05, Final residual = 9.54596e-05, No Iterations 0
time step continuity errors : sum local = 5.70898e-11, global = 8.53652e-15, cumulative = 1.76662e-13
PIMPLE: iteration 5
DILUPBiCGStab:  Solving for Ux, Initial residual = 3.76255e-05, Final residual = 3.76255e-05, No Iterations 0
DILUPBiCGStab:  Solving for Uy, Initial residual = 0.000285337, Final residual = 5.8489e-05, No Iterations 1
DILUPBiCGStab:  Solving for Uz, Initial residual = 0.000196267, Final residual = 4.80844e-05, No Iterations 1
GAMG:  Solving for p, Initial residual = 0.0013372, Final residual = 4.38478e-05, No Iterations 2
GAMG:  Solving for p, Initial residual = 0.000149847, Final residual = 2.25521e-05, No Iterations 1
GAMG:  Solving for p, Initial residual = 3.75823e-05, Final residual = 3.75823e-05, No Iterations 0
GAMG:  Solving for p, Initial residual = 3.75823e-05, Final residual = 3.75823e-05, No Iterations 0
time step continuity errors : sum local = 2.2488e-11, global = 8.6072e-15, cumulative = 1.8527e-13
GAMG:  Solving for p, Initial residual = 0.000523318, Final residual = 6.14949e-05, No Iterations 1
GAMG:  Solving for p, Initial residual = 8.39881e-05, Final residual = 8.39881e-05, No Iterations 0
GAMG:  Solving for p, Initial residual = 8.39881e-05, Final residual = 8.39881e-05, No Iterations 0
GAMG:  Solving for p, Initial residual = 8.39881e-05, Final residual = 8.39881e-05, No Iterations 0
time step continuity errors : sum local = 5.02441e-11, global = 8.60703e-15, cumulative = 1.93877e-13
GAMG:  Solving for p, Initial residual = 0.000226363, Final residual = 4.02339e-05, No Iterations 1
GAMG:  Solving for p, Initial residual = 5.75013e-05, Final residual = 5.75013e-05, No Iterations 0
GAMG:  Solving for p, Initial residual = 5.75013e-05, Final residual = 5.75013e-05, No Iterations 0
GAMG:  Solving for p, Initial residual = 5.75013e-05, Final residual = 5.75013e-05, No Iterations 0
time step continuity errors : sum local = 3.43964e-11, global = 8.61273e-15, cumulative = 2.02489e-13
PIMPLE: iteration 6
DILUPBiCGStab:  Solving for Ux, Initial residual = 7.52606e-06, Final residual = 7.52606e-06, No Iterations 0
DILUPBiCGStab:  Solving for Uy, Initial residual = 8.23092e-05, Final residual = 8.23092e-05, No Iterations 0
DILUPBiCGStab:  Solving for Uz, Initial residual = 5.24354e-05, Final residual = 5.24354e-05, No Iterations 0
GAMG:  Solving for p, Initial residual = 0.000143332, Final residual = 2.10338e-05, No Iterations 1
GAMG:  Solving for p, Initial residual = 3.27162e-05, Final residual = 3.27162e-05, No Iterations 0
GAMG:  Solving for p, Initial residual = 3.27162e-05, Final residual = 3.27162e-05, No Iterations 0
GAMG:  Solving for p, Initial residual = 3.27162e-05, Final residual = 3.27162e-05, No Iterations 0
time step continuity errors : sum local = 1.95695e-11, global = 8.62064e-15, cumulative = 2.1111e-13
GAMG:  Solving for p, Initial residual = 5.93896e-05, Final residual = 5.93896e-05, No Iterations 0
GAMG:  Solving for p, Initial residual = 5.93896e-05, Final residual = 5.93896e-05, No Iterations 0
GAMG:  Solving for p, Initial residual = 5.93896e-05, Final residual = 5.93896e-05, No Iterations 0
GAMG:  Solving for p, Initial residual = 5.93896e-05, Final residual = 5.93896e-05, No Iterations 0
time step continuity errors : sum local = 3.55243e-11, global = 8.62658e-15, cumulative = 2.19737e-13
GAMG:  Solving for p, Initial residual = 7.64405e-05, Final residual = 7.64405e-05, No Iterations 0
GAMG:  Solving for p, Initial residual = 7.64405e-05, Final residual = 7.64405e-05, No Iterations 0
GAMG:  Solving for p, Initial residual = 7.64405e-05, Final residual = 7.64405e-05, No Iterations 0
GAMG:  Solving for p, Initial residual = 7.64405e-05, Final residual = 7.64405e-05, No Iterations 0
time step continuity errors : sum local = 4.57233e-11, global = 8.6312e-15, cumulative = 2.28368e-13
PIMPLE: iteration 7
DILUPBiCGStab:  Solving for Ux, Initial residual = 3.97518e-06, Final residual = 3.97518e-06, No Iterations 0
DILUPBiCGStab:  Solving for Uy, Initial residual = 2.42326e-05, Final residual = 2.42326e-05, No Iterations 0
DILUPBiCGStab:  Solving for Uz, Initial residual = 1.76505e-05, Final residual = 1.76505e-05, No Iterations 0
GAMG:  Solving for p, Initial residual = 9.62991e-05, Final residual = 9.62991e-05, No Iterations 0
GAMG:  Solving for p, Initial residual = 9.62991e-05, Final residual = 9.62991e-05, No Iterations 0
GAMG:  Solving for p, Initial residual = 9.62991e-05, Final residual = 9.62991e-05, No Iterations 0
GAMG:  Solving for p, Initial residual = 9.62991e-05, Final residual = 9.62991e-05, No Iterations 0
time step continuity errors : sum local = 5.76017e-11, global = 8.63487e-15, cumulative = 2.37003e-13
GAMG:  Solving for p, Initial residual = 0.000107469, Final residual = 1.70583e-05, No Iterations 1
GAMG:  Solving for p, Initial residual = 2.26614e-05, Final residual = 2.26614e-05, No Iterations 0
GAMG:  Solving for p, Initial residual = 2.26614e-05, Final residual = 2.26614e-05, No Iterations 0
GAMG:  Solving for p, Initial residual = 2.26614e-05, Final residual = 2.26614e-05, No Iterations 0
time step continuity errors : sum local = 1.35548e-11, global = 8.63805e-15, cumulative = 2.45641e-13
GAMG:  Solving for p, Initial residual = 2.80876e-05, Final residual = 2.80876e-05, No Iterations 0
GAMG:  Solving for p, Initial residual = 2.80876e-05, Final residual = 2.80876e-05, No Iterations 0
GAMG:  Solving for p, Initial residual = 2.80876e-05, Final residual = 2.80876e-05, No Iterations 0
GAMG:  Solving for p, Initial residual = 2.80876e-05, Final residual = 2.80876e-05, No Iterations 0
time step continuity errors : sum local = 1.68004e-11, global = 8.6406e-15, cumulative = 2.54281e-13
smoothSolver:  Solving for epsilon, Initial residual = 0.612815, Final residual = 2.13523e-07, No Iterations 10
smoothSolver:  Solving for k, Initial residual = 0.463134, Final residual = 0.000129956, No Iterations 10
PIMPLE: converged in 7 iterations
ExecutionTime = 16.13 s  ClockTime = 22 s

scalarTransport execute: s
DILUPBiCGStab:  Solving for s, Initial residual = 0.000380786, Final residual = 8.78004e-08, No Iterations 1

scalarTransport execute: s
DILUPBiCGStab:  Solving for s, Initial residual = 0.227602, Final residual = 0.0120552, No Iterations 1

Courant Number mean: 1.42795e-05 max: 0.0635489
deltaT = 0.000868778
Time = 0.002181

PIMPLE: iteration 1
DILUPBiCGStab:  Solving for Ux, Initial residual = 0.193974, Final residual = 0.0112674, No Iterations 1
DILUPBiCGStab:  Solving for Uy, Initial residual = 0.193138, Final residual = 0.0173106, No Iterations 1
DILUPBiCGStab:  Solving for Uz, Initial residual = 0.22682, Final residual = 0.0212754, No Iterations 1
GAMG:  Solving for p, Initial residual = 0.495143, Final residual = 0.00315709, No Iterations 4
GAMG:  Solving for p, Initial residual = 0.0594911, Final residual = 0.00031105, No Iterations 3
GAMG:  Solving for p, Initial residual = 0.00498433, Final residual = 5.76872e-05, No Iterations 3
GAMG:  Solving for p, Initial residual = 0.000625877, Final residual = 4.7564e-05, No Iterations 1
time step continuity errors : sum local = 6.41329e-11, global = 1.69044e-14, cumulative = 2.71186e-13
GAMG:  Solving for p, Initial residual = 0.237837, Final residual = 0.00181497, No Iterations 4
GAMG:  Solving for p, Initial residual = 0.0616481, Final residual = 0.000306372, No Iterations 3
GAMG:  Solving for p, Initial residual = 0.00577366, Final residual = 6.08033e-05, No Iterations 3
GAMG:  Solving for p, Initial residual = 0.000701286, Final residual = 5.42751e-05, No Iterations 1
time step continuity errors : sum local = 5.18461e-11, global = 1.68545e-14, cumulative = 2.8804e-13
GAMG:  Solving for p, Initial residual = 0.0501608, Final residual = 0.000207083, No Iterations 4
GAMG:  Solving for p, Initial residual = 0.00482338, Final residual = 9.99846e-05, No Iterations 2
GAMG:  Solving for p, Initial residual = 0.000522341, Final residual = 6.3478e-05, No Iterations 1
GAMG:  Solving for p, Initial residual = 0.000119177, Final residual = 3.3748e-05, No Iterations 1
time step continuity errors : sum local = 3.07795e-11, global = 5.21729e-15, cumulative = 2.93258e-13
PIMPLE: iteration 2
DILUPBiCGStab:  Solving for Ux, Initial residual = 0.0062693, Final residual = 0.00060747, No Iterations 1
DILUPBiCGStab:  Solving for Uy, Initial residual = 0.0348903, Final residual = 0.000625244, No Iterations 2
DILUPBiCGStab:  Solving for Uz, Initial residual = 0.0204195, Final residual = 0.0019479, No Iterations 1
GAMG:  Solving for p, Initial residual = 0.134125, Final residual = 0.000475582, No Iterations 4
GAMG:  Solving for p, Initial residual = 0.0158737, Final residual = 0.000102306, No Iterations 3
GAMG:  Solving for p, Initial residual = 0.00143248, Final residual = 3.91563e-05, No Iterations 2
GAMG:  Solving for p, Initial residual = 0.000215846, Final residual = 2.70832e-05, No Iterations 1
time step continuity errors : sum local = 2.70823e-11, global = -1.02518e-14, cumulative = 2.83006e-13
GAMG:  Solving for p, Initial residual = 0.0718218, Final residual = 0.000307256, No Iterations 4
GAMG:  Solving for p, Initial residual = 0.012302, Final residual = 7.19833e-05, No Iterations 3
GAMG:  Solving for p, Initial residual = 0.00108141, Final residual = 7.36859e-05, No Iterations 1
GAMG:  Solving for p, Initial residual = 0.000153284, Final residual = 3.00985e-05, No Iterations 1
time step continuity errors : sum local = 2.80842e-11, global = -1.03509e-14, cumulative = 2.72655e-13
GAMG:  Solving for p, Initial residual = 0.0140626, Final residual = 0.000124399, No Iterations 3
GAMG:  Solving for p, Initial residual = 0.00155178, Final residual = 3.57974e-05, No Iterations 2
GAMG:  Solving for p, Initial residual = 0.000222845, Final residual = 2.38908e-05, No Iterations 1
GAMG:  Solving for p, Initial residual = 5.41937e-05, Final residual = 5.41937e-05, No Iterations 0
time step continuity errors : sum local = 5.03223e-11, global = -1.086e-14, cumulative = 2.61795e-13
PIMPLE: iteration 3
DILUPBiCGStab:  Solving for Ux, Initial residual = 0.000782754, Final residual = 6.75034e-05, No Iterations 1
DILUPBiCGStab:  Solving for Uy, Initial residual = 0.00521815, Final residual = 0.000402267, No Iterations 1
DILUPBiCGStab:  Solving for Uz, Initial residual = 0.00314519, Final residual = 0.000258264, No Iterations 1
GAMG:  Solving for p, Initial residual = 0.0265309, Final residual = 0.000260252, No Iterations 3
GAMG:  Solving for p, Initial residual = 0.00287875, Final residual = 6.83594e-05, No Iterations 2
GAMG:  Solving for p, Initial residual = 0.000398763, Final residual = 4.39962e-05, No Iterations 1
GAMG:  Solving for p, Initial residual = 0.000108256, Final residual = 3.19415e-05, No Iterations 1
time step continuity errors : sum local = 2.96873e-11, global = 1.07939e-15, cumulative = 2.62874e-13
GAMG:  Solving for p, Initial residual = 0.0116521, Final residual = 5.55053e-05, No Iterations 4
GAMG:  Solving for p, Initial residual = 0.00177226, Final residual = 9.32749e-05, No Iterations 1
GAMG:  Solving for p, Initial residual = 0.000218766, Final residual = 3.09727e-05, No Iterations 1
GAMG:  Solving for p, Initial residual = 5.4978e-05, Final residual = 5.4978e-05, No Iterations 0
time step continuity errors : sum local = 5.11819e-11, global = 4.32069e-15, cumulative = 2.67195e-13
GAMG:  Solving for p, Initial residual = 0.00369677, Final residual = 9.62502e-05, No Iterations 2
GAMG:  Solving for p, Initial residual = 0.000391552, Final residual = 3.486e-05, No Iterations 1
GAMG:  Solving for p, Initial residual = 7.81024e-05, Final residual = 7.81024e-05, No Iterations 0
GAMG:  Solving for p, Initial residual = 7.81024e-05, Final residual = 7.81024e-05, No Iterations 0
time step continuity errors : sum local = 7.27025e-11, global = 9.6198e-15, cumulative = 2.76815e-13
PIMPLE: iteration 4
DILUPBiCGStab:  Solving for Ux, Initial residual = 0.000201048, Final residual = 5.35198e-05, No Iterations 1
DILUPBiCGStab:  Solving for Uy, Initial residual = 0.00142363, Final residual = 0.000112188, No Iterations 1
DILUPBiCGStab:  Solving for Uz, Initial residual = 0.000958979, Final residual = 8.22627e-05, No Iterations 1
GAMG:  Solving for p, Initial residual = 0.00808021, Final residual = 7.8487e-05, No Iterations 3
GAMG:  Solving for p, Initial residual = 0.000830181, Final residual = 5.7442e-05, No Iterations 1
GAMG:  Solving for p, Initial residual = 0.000144904, Final residual = 4.73223e-05, No Iterations 1
GAMG:  Solving for p, Initial residual = 0.00018143, Final residual = 1.84288e-05, No Iterations 1
time step continuity errors : sum local = 1.7167e-11, global = 9.65739e-15, cumulative = 2.86472e-13
GAMG:  Solving for p, Initial residual = 0.00360019, Final residual = 4.55197e-05, No Iterations 3
GAMG:  Solving for p, Initial residual = 0.000434082, Final residual = 2.98959e-05, No Iterations 1
GAMG:  Solving for p, Initial residual = 7.13751e-05, Final residual = 7.13751e-05, No Iterations 0
GAMG:  Solving for p, Initial residual = 7.13751e-05, Final residual = 7.13751e-05, No Iterations 0
time step continuity errors : sum local = 6.64314e-11, global = -8.17033e-15, cumulative = 2.78302e-13
GAMG:  Solving for p, Initial residual = 0.00116496, Final residual = 4.55308e-05, No Iterations 2
GAMG:  Solving for p, Initial residual = 0.000202866, Final residual = 3.0213e-05, No Iterations 1
GAMG:  Solving for p, Initial residual = 0.000113961, Final residual = 1.4729e-05, No Iterations 1
GAMG:  Solving for p, Initial residual = 5.79767e-05, Final residual = 5.79767e-05, No Iterations 0
time step continuity errors : sum local = 5.39467e-11, global = -6.85991e-16, cumulative = 2.77616e-13
PIMPLE: iteration 5
DILUPBiCGStab:  Solving for Ux, Initial residual = 7.19793e-05, Final residual = 7.19793e-05, No Iterations 0
DILUPBiCGStab:  Solving for Uy, Initial residual = 0.00057323, Final residual = 4.60678e-05, No Iterations 1
DILUPBiCGStab:  Solving for Uz, Initial residual = 0.000330086, Final residual = 9.56225e-05, No Iterations 1
GAMG:  Solving for p, Initial residual = 0.00245166, Final residual = 7.46597e-05, No Iterations 2
GAMG:  Solving for p, Initial residual = 0.000278356, Final residual = 3.03465e-05, No Iterations 1
GAMG:  Solving for p, Initial residual = 6.15436e-05, Final residual = 6.15436e-05, No Iterations 0
GAMG:  Solving for p, Initial residual = 6.15436e-05, Final residual = 6.15436e-05, No Iterations 0
time step continuity errors : sum local = 5.72136e-11, global = 3.68805e-15, cumulative = 2.81304e-13
GAMG:  Solving for p, Initial residual = 0.00115648, Final residual = 3.46814e-05, No Iterations 2
GAMG:  Solving for p, Initial residual = 0.000138673, Final residual = 1.31215e-05, No Iterations 1
GAMG:  Solving for p, Initial residual = 3.43305e-05, Final residual = 3.43305e-05, No Iterations 0
GAMG:  Solving for p, Initial residual = 3.43305e-05, Final residual = 3.43305e-05, No Iterations 0
time step continuity errors : sum local = 3.1936e-11, global = -6.45563e-16, cumulative = 2.80658e-13
GAMG:  Solving for p, Initial residual = 0.000346433, Final residual = 4.75061e-05, No Iterations 1
GAMG:  Solving for p, Initial residual = 6.68386e-05, Final residual = 6.68386e-05, No Iterations 0
GAMG:  Solving for p, Initial residual = 6.68386e-05, Final residual = 6.68386e-05, No Iterations 0
GAMG:  Solving for p, Initial residual = 6.68386e-05, Final residual = 6.68386e-05, No Iterations 0
time step continuity errors : sum local = 6.21823e-11, global = -3.34573e-15, cumulative = 2.77313e-13
PIMPLE: iteration 6
DILUPBiCGStab:  Solving for Ux, Initial residual = 1.49783e-05, Final residual = 1.49783e-05, No Iterations 0
DILUPBiCGStab:  Solving for Uy, Initial residual = 0.000239148, Final residual = 6.4953e-05, No Iterations 1
DILUPBiCGStab:  Solving for Uz, Initial residual = 0.000123768, Final residual = 3.41233e-05, No Iterations 1
GAMG:  Solving for p, Initial residual = 0.000848993, Final residual = 3.6359e-05, No Iterations 2
GAMG:  Solving for p, Initial residual = 0.000122875, Final residual = 1.61508e-05, No Iterations 1
GAMG:  Solving for p, Initial residual = 3.13312e-05, Final residual = 3.13312e-05, No Iterations 0
GAMG:  Solving for p, Initial residual = 3.13312e-05, Final residual = 3.13312e-05, No Iterations 0
time step continuity errors : sum local = 2.91588e-11, global = -1.82838e-15, cumulative = 2.75484e-13
GAMG:  Solving for p, Initial residual = 0.000393552, Final residual = 5.7383e-05, No Iterations 1
GAMG:  Solving for p, Initial residual = 8.20863e-05, Final residual = 8.20863e-05, No Iterations 0
GAMG:  Solving for p, Initial residual = 8.20863e-05, Final residual = 8.20863e-05, No Iterations 0
GAMG:  Solving for p, Initial residual = 8.20863e-05, Final residual = 8.20863e-05, No Iterations 0
time step continuity errors : sum local = 7.63787e-11, global = 5.21821e-15, cumulative = 2.80702e-13
GAMG:  Solving for p, Initial residual = 0.000212444, Final residual = 4.11652e-05, No Iterations 1
GAMG:  Solving for p, Initial residual = 5.53131e-05, Final residual = 5.53131e-05, No Iterations 0
GAMG:  Solving for p, Initial residual = 5.53131e-05, Final residual = 5.53131e-05, No Iterations 0
GAMG:  Solving for p, Initial residual = 5.53131e-05, Final residual = 5.53131e-05, No Iterations 0
time step continuity errors : sum local = 5.14638e-11, global = 8.22383e-15, cumulative = 2.88926e-13
PIMPLE: iteration 7
DILUPBiCGStab:  Solving for Ux, Initial residual = 1.21721e-05, Final residual = 1.21721e-05, No Iterations 0
DILUPBiCGStab:  Solving for Uy, Initial residual = 7.07179e-05, Final residual = 7.07179e-05, No Iterations 0
DILUPBiCGStab:  Solving for Uz, Initial residual = 4.25495e-05, Final residual = 4.25495e-05, No Iterations 0
GAMG:  Solving for p, Initial residual = 0.000111633, Final residual = 2.18802e-05, No Iterations 1
GAMG:  Solving for p, Initial residual = 3.06407e-05, Final residual = 3.06407e-05, No Iterations 0
GAMG:  Solving for p, Initial residual = 3.06407e-05, Final residual = 3.06407e-05, No Iterations 0
GAMG:  Solving for p, Initial residual = 3.06407e-05, Final residual = 3.06407e-05, No Iterations 0
time step continuity errors : sum local = 2.85081e-11, global = 7.81232e-15, cumulative = 2.96739e-13
GAMG:  Solving for p, Initial residual = 5.33653e-05, Final residual = 5.33653e-05, No Iterations 0
GAMG:  Solving for p, Initial residual = 5.33653e-05, Final residual = 5.33653e-05, No Iterations 0
GAMG:  Solving for p, Initial residual = 5.33653e-05, Final residual = 5.33653e-05, No Iterations 0
GAMG:  Solving for p, Initial residual = 5.33653e-05, Final residual = 5.33653e-05, No Iterations 0
time step continuity errors : sum local = 4.9651e-11, global = 7.62946e-15, cumulative = 3.04368e-13
GAMG:  Solving for p, Initial residual = 7.01134e-05, Final residual = 7.01134e-05, No Iterations 0
GAMG:  Solving for p, Initial residual = 7.01134e-05, Final residual = 7.01134e-05, No Iterations 0
GAMG:  Solving for p, Initial residual = 7.01134e-05, Final residual = 7.01134e-05, No Iterations 0
GAMG:  Solving for p, Initial residual = 7.01134e-05, Final residual = 7.01134e-05, No Iterations 0
time step continuity errors : sum local = 6.52334e-11, global = 7.53281e-15, cumulative = 3.11901e-13
PIMPLE: iteration 8
DILUPBiCGStab:  Solving for Ux, Initial residual = 4.89431e-06, Final residual = 4.89431e-06, No Iterations 0
DILUPBiCGStab:  Solving for Uy, Initial residual = 3.24456e-05, Final residual = 3.24456e-05, No Iterations 0
DILUPBiCGStab:  Solving for Uz, Initial residual = 1.64673e-05, Final residual = 1.64673e-05, No Iterations 0
GAMG:  Solving for p, Initial residual = 9.1535e-05, Final residual = 9.1535e-05, No Iterations 0
GAMG:  Solving for p, Initial residual = 9.1535e-05, Final residual = 9.1535e-05, No Iterations 0
GAMG:  Solving for p, Initial residual = 9.1535e-05, Final residual = 9.1535e-05, No Iterations 0
GAMG:  Solving for p, Initial residual = 9.1535e-05, Final residual = 9.1535e-05, No Iterations 0
time step continuity errors : sum local = 8.51641e-11, global = 7.506e-15, cumulative = 3.19407e-13
GAMG:  Solving for p, Initial residual = 0.00010556, Final residual = 1.89423e-05, No Iterations 1
GAMG:  Solving for p, Initial residual = 2.62067e-05, Final residual = 2.62067e-05, No Iterations 0
GAMG:  Solving for p, Initial residual = 2.62067e-05, Final residual = 2.62067e-05, No Iterations 0
GAMG:  Solving for p, Initial residual = 2.62067e-05, Final residual = 2.62067e-05, No Iterations 0
time step continuity errors : sum local = 2.43827e-11, global = 6.28199e-15, cumulative = 3.25689e-13
GAMG:  Solving for p, Initial residual = 3.20216e-05, Final residual = 3.20216e-05, No Iterations 0
GAMG:  Solving for p, Initial residual = 3.20216e-05, Final residual = 3.20216e-05, No Iterations 0
GAMG:  Solving for p, Initial residual = 3.20216e-05, Final residual = 3.20216e-05, No Iterations 0
GAMG:  Solving for p, Initial residual = 3.20216e-05, Final residual = 3.20216e-05, No Iterations 0
time step continuity errors : sum local = 2.97927e-11, global = 5.15361e-15, cumulative = 3.30843e-13
smoothSolver:  Solving for epsilon, Initial residual = 0.822081, Final residual = 8.24581e-05, No Iterations 10
smoothSolver:  Solving for k, Initial residual = 0.318152, Final residual = 0.000921425, No Iterations 10
PIMPLE: converged in 8 iterations
ExecutionTime = 22.03 s  ClockTime = 28 s

scalarTransport execute: s
DILUPBiCGStab:  Solving for s, Initial residual = 0.000617844, Final residual = 3.45836e-07, No Iterations 1

scalarTransport execute: s
DILUPBiCGStab:  Solving for s, Initial residual = 0.122477, Final residual = 0.0101969, No Iterations 1

Courant Number mean: 2.75747e-05 max: 0.112648
deltaT = 0.000977376
Time = 0.00315837

PIMPLE: iteration 1
DILUPBiCGStab:  Solving for Ux, Initial residual = 0.143792, Final residual = 0.011701, No Iterations 1
DILUPBiCGStab:  Solving for Uy, Initial residual = 0.128467, Final residual = 0.00290548, No Iterations 2
DILUPBiCGStab:  Solving for Uz, Initial residual = 0.170425, Final residual = 0.0034855, No Iterations 2
GAMG:  Solving for p, Initial residual = 0.400997, Final residual = 0.0019826, No Iterations 4
GAMG:  Solving for p, Initial residual = 0.0422388, Final residual = 0.000191448, No Iterations 3
GAMG:  Solving for p, Initial residual = 0.00353703, Final residual = 8.5657e-05, No Iterations 2
GAMG:  Solving for p, Initial residual = 0.000422659, Final residual = 5.25337e-05, No Iterations 1
time step continuity errors : sum local = 9.72573e-11, global = -1.81447e-14, cumulative = 3.12698e-13
GAMG:  Solving for p, Initial residual = 0.209425, Final residual = 0.0012343, No Iterations 4
GAMG:  Solving for p, Initial residual = 0.042673, Final residual = 0.000180036, No Iterations 3
GAMG:  Solving for p, Initial residual = 0.00388542, Final residual = 8.65604e-05, No Iterations 2
GAMG:  Solving for p, Initial residual = 0.000464017, Final residual = 5.51822e-05, No Iterations 1
time step continuity errors : sum local = 7.88216e-11, global = -2.0998e-14, cumulative = 2.917e-13
GAMG:  Solving for p, Initial residual = 0.0416398, Final residual = 0.000337729, No Iterations 3
GAMG:  Solving for p, Initial residual = 0.0033398, Final residual = 9.35324e-05, No Iterations 2
GAMG:  Solving for p, Initial residual = 0.000424406, Final residual = 5.69041e-05, No Iterations 1
GAMG:  Solving for p, Initial residual = 0.000105855, Final residual = 3.0415e-05, No Iterations 1
time step continuity errors : sum local = 4.18737e-11, global = -6.13217e-15, cumulative = 2.85568e-13
PIMPLE: iteration 2
DILUPBiCGStab:  Solving for Ux, Initial residual = 0.00611127, Final residual = 0.000169307, No Iterations 2
DILUPBiCGStab:  Solving for Uy, Initial residual = 0.0279719, Final residual = 0.000792447, No Iterations 2
DILUPBiCGStab:  Solving for Uz, Initial residual = 0.0140594, Final residual = 0.000440872, No Iterations 2
GAMG:  Solving for p, Initial residual = 0.123754, Final residual = 0.00103557, No Iterations 3
GAMG:  Solving for p, Initial residual = 0.0141191, Final residual = 0.000106262, No Iterations 3
GAMG:  Solving for p, Initial residual = 0.00156381, Final residual = 4.04456e-05, No Iterations 2
GAMG:  Solving for p, Initial residual = 0.000249861, Final residual = 2.82454e-05, No Iterations 1
time step continuity errors : sum local = 4.35017e-11, global = 2.87663e-14, cumulative = 3.14334e-13
GAMG:  Solving for p, Initial residual = 0.0723911, Final residual = 0.000710515, No Iterations 3
GAMG:  Solving for p, Initial residual = 0.0115716, Final residual = 7.71078e-05, No Iterations 3
GAMG:  Solving for p, Initial residual = 0.00122418, Final residual = 7.54818e-05, No Iterations 1
GAMG:  Solving for p, Initial residual = 0.000174714, Final residual = 3.0317e-05, No Iterations 1
time step continuity errors : sum local = 4.3377e-11, global = 3.30584e-14, cumulative = 3.47392e-13
GAMG:  Solving for p, Initial residual = 0.0158569, Final residual = 9.87231e-05, No Iterations 3
GAMG:  Solving for p, Initial residual = 0.00160846, Final residual = 8.60751e-05, No Iterations 1
GAMG:  Solving for p, Initial residual = 0.000242822, Final residual = 3.54521e-05, No Iterations 1
GAMG:  Solving for p, Initial residual = 7.3941e-05, Final residual = 7.3941e-05, No Iterations 0
time step continuity errors : sum local = 1.051e-10, global = 3.98047e-14, cumulative = 3.87197e-13
PIMPLE: iteration 3
DILUPBiCGStab:  Solving for Ux, Initial residual = 0.000841579, Final residual = 6.88314e-05, No Iterations 1
DILUPBiCGStab:  Solving for Uy, Initial residual = 0.00634027, Final residual = 0.000585876, No Iterations 1
DILUPBiCGStab:  Solving for Uz, Initial residual = 0.00346851, Final residual = 0.000337893, No Iterations 1
GAMG:  Solving for p, Initial residual = 0.0356975, Final residual = 0.000235901, No Iterations 3
GAMG:  Solving for p, Initial residual = 0.00321896, Final residual = 6.7604e-05, No Iterations 2
GAMG:  Solving for p, Initial residual = 0.000521461, Final residual = 4.79006e-05, No Iterations 1
GAMG:  Solving for p, Initial residual = 0.000145066, Final residual = 3.9677e-05, No Iterations 1
time step continuity errors : sum local = 5.60393e-11, global = 3.29132e-14, cumulative = 4.2011e-13
GAMG:  Solving for p, Initial residual = 0.0163667, Final residual = 0.000150902, No Iterations 3
GAMG:  Solving for p, Initial residual = 0.00193484, Final residual = 3.85954e-05, No Iterations 2
GAMG:  Solving for p, Initial residual = 0.000250022, Final residual = 2.59905e-05, No Iterations 1
GAMG:  Solving for p, Initial residual = 6.71419e-05, Final residual = 6.71419e-05, No Iterations 0
time step continuity errors : sum local = 9.5494e-11, global = 2.07941e-14, cumulative = 4.40904e-13
GAMG:  Solving for p, Initial residual = 0.0055355, Final residual = 4.41915e-05, No Iterations 3
GAMG:  Solving for p, Initial residual = 0.000591231, Final residual = 3.58415e-05, No Iterations 1
GAMG:  Solving for p, Initial residual = 9.55204e-05, Final residual = 9.55204e-05, No Iterations 0
GAMG:  Solving for p, Initial residual = 9.55204e-05, Final residual = 9.55204e-05, No Iterations 0
time step continuity errors : sum local = 1.35904e-10, global = 5.54291e-15, cumulative = 4.46447e-13
PIMPLE: iteration 4
DILUPBiCGStab:  Solving for Ux, Initial residual = 0.000332633, Final residual = 9.64563e-05, No Iterations 1
DILUPBiCGStab:  Solving for Uy, Initial residual = 0.00233221, Final residual = 0.000198681, No Iterations 1
DILUPBiCGStab:  Solving for Uz, Initial residual = 0.00143609, Final residual = 0.000130503, No Iterations 1
GAMG:  Solving for p, Initial residual = 0.0145147, Final residual = 9.74721e-05, No Iterations 3
GAMG:  Solving for p, Initial residual = 0.00121948, Final residual = 8.2477e-05, No Iterations 1
GAMG:  Solving for p, Initial residual = 0.000201713, Final residual = 4.61236e-05, No Iterations 1
GAMG:  Solving for p, Initial residual = 0.000166128, Final residual = 2.63483e-05, No Iterations 1
time step continuity errors : sum local = 3.76556e-11, global = -1.47613e-14, cumulative = 4.31686e-13
GAMG:  Solving for p, Initial residual = 0.00629507, Final residual = 5.02653e-05, No Iterations 3
GAMG:  Solving for p, Initial residual = 0.000635673, Final residual = 3.88143e-05, No Iterations 1
GAMG:  Solving for p, Initial residual = 9.99312e-05, Final residual = 9.99312e-05, No Iterations 0
GAMG:  Solving for p, Initial residual = 9.99312e-05, Final residual = 9.99312e-05, No Iterations 0
time step continuity errors : sum local = 1.42318e-10, global = 1.32434e-14, cumulative = 4.44929e-13
GAMG:  Solving for p, Initial residual = 0.00230479, Final residual = 6.9006e-05, No Iterations 2
GAMG:  Solving for p, Initial residual = 0.000266819, Final residual = 3.64069e-05, No Iterations 1
GAMG:  Solving for p, Initial residual = 0.000119004, Final residual = 2.45324e-05, No Iterations 1
GAMG:  Solving for p, Initial residual = 9.91973e-05, Final residual = 9.91973e-05, No Iterations 0
time step continuity errors : sum local = 1.41181e-10, global = 1.20776e-14, cumulative = 4.57007e-13
PIMPLE: iteration 5
DILUPBiCGStab:  Solving for Ux, Initial residual = 0.000149971, Final residual = 4.06061e-05, No Iterations 1
DILUPBiCGStab:  Solving for Uy, Initial residual = 0.00107713, Final residual = 9.79311e-05, No Iterations 1
DILUPBiCGStab:  Solving for Uz, Initial residual = 0.000688518, Final residual = 5.42356e-05, No Iterations 1
GAMG:  Solving for p, Initial residual = 0.00679537, Final residual = 4.68114e-05, No Iterations 3
GAMG:  Solving for p, Initial residual = 0.000551684, Final residual = 3.44192e-05, No Iterations 1
GAMG:  Solving for p, Initial residual = 7.60993e-05, Final residual = 7.60993e-05, No Iterations 0
GAMG:  Solving for p, Initial residual = 7.60993e-05, Final residual = 7.60993e-05, No Iterations 0
time step continuity errors : sum local = 1.08062e-10, global = 4.41927e-14, cumulative = 5.012e-13
GAMG:  Solving for p, Initial residual = 0.00284116, Final residual = 8.08627e-05, No Iterations 2
GAMG:  Solving for p, Initial residual = 0.000277384, Final residual = 2.50034e-05, No Iterations 1
GAMG:  Solving for p, Initial residual = 4.66364e-05, Final residual = 4.66364e-05, No Iterations 0
GAMG:  Solving for p, Initial residual = 4.66364e-05, Final residual = 4.66364e-05, No Iterations 0
time step continuity errors : sum local = 6.63244e-11, global = 4.05019e-14, cumulative = 5.41702e-13
GAMG:  Solving for p, Initial residual = 0.00107549, Final residual = 3.1213e-05, No Iterations 2
GAMG:  Solving for p, Initial residual = 0.000110577, Final residual = 1.3612e-05, No Iterations 1
GAMG:  Solving for p, Initial residual = 2.36197e-05, Final residual = 2.36197e-05, No Iterations 0
GAMG:  Solving for p, Initial residual = 2.36197e-05, Final residual = 2.36197e-05, No Iterations 0
time step continuity errors : sum local = 3.35987e-11, global = 2.6394e-14, cumulative = 5.68096e-13
PIMPLE: iteration 6
DILUPBiCGStab:  Solving for Ux, Initial residual = 7.40636e-05, Final residual = 7.40636e-05, No Iterations 0
DILUPBiCGStab:  Solving for Uy, Initial residual = 0.000504252, Final residual = 4.78687e-05, No Iterations 1
DILUPBiCGStab:  Solving for Uz, Initial residual = 0.000339454, Final residual = 2.7999e-05, No Iterations 1
GAMG:  Solving for p, Initial residual = 0.00299323, Final residual = 7.52342e-05, No Iterations 2
GAMG:  Solving for p, Initial residual = 0.000317255, Final residual = 3.17271e-05, No Iterations 1
GAMG:  Solving for p, Initial residual = 5.26877e-05, Final residual = 5.26877e-05, No Iterations 0
GAMG:  Solving for p, Initial residual = 5.26877e-05, Final residual = 5.26877e-05, No Iterations 0
time step continuity errors : sum local = 7.50716e-11, global = -3.89117e-14, cumulative = 5.29184e-13
GAMG:  Solving for p, Initial residual = 0.00135369, Final residual = 3.00808e-05, No Iterations 2
GAMG:  Solving for p, Initial residual = 0.000138097, Final residual = 1.12695e-05, No Iterations 1
GAMG:  Solving for p, Initial residual = 2.2356e-05, Final residual = 2.2356e-05, No Iterations 0
GAMG:  Solving for p, Initial residual = 2.2356e-05, Final residual = 2.2356e-05, No Iterations 0
time step continuity errors : sum local = 3.18191e-11, global = -3.09217e-14, cumulative = 4.98262e-13
GAMG:  Solving for p, Initial residual = 0.000486938, Final residual = 6.24388e-05, No Iterations 1
GAMG:  Solving for p, Initial residual = 8.6035e-05, Final residual = 8.6035e-05, No Iterations 0
GAMG:  Solving for p, Initial residual = 8.6035e-05, Final residual = 8.6035e-05, No Iterations 0
GAMG:  Solving for p, Initial residual = 8.6035e-05, Final residual = 8.6035e-05, No Iterations 0
time step continuity errors : sum local = 1.22427e-10, global = -2.63571e-14, cumulative = 4.71905e-13
PIMPLE: iteration 7
DILUPBiCGStab:  Solving for Ux, Initial residual = 1.89792e-05, Final residual = 1.89792e-05, No Iterations 0
DILUPBiCGStab:  Solving for Uy, Initial residual = 0.000261922, Final residual = 7.27157e-05, No Iterations 1
DILUPBiCGStab:  Solving for Uz, Initial residual = 0.000180368, Final residual = 5.64491e-05, No Iterations 1
GAMG:  Solving for p, Initial residual = 0.00154133, Final residual = 5.25709e-05, No Iterations 2
GAMG:  Solving for p, Initial residual = 0.000188209, Final residual = 2.43408e-05, No Iterations 1
GAMG:  Solving for p, Initial residual = 3.77752e-05, Final residual = 3.77752e-05, No Iterations 0
GAMG:  Solving for p, Initial residual = 3.77752e-05, Final residual = 3.77752e-05, No Iterations 0
time step continuity errors : sum local = 5.3716e-11, global = -1.35984e-14, cumulative = 4.58307e-13
GAMG:  Solving for p, Initial residual = 0.000644089, Final residual = 8.18503e-05, No Iterations 1
GAMG:  Solving for p, Initial residual = 0.000118065, Final residual = 2.05827e-05, No Iterations 1
GAMG:  Solving for p, Initial residual = 2.84448e-05, Final residual = 2.84448e-05, No Iterations 0
GAMG:  Solving for p, Initial residual = 2.84448e-05, Final residual = 2.84448e-05, No Iterations 0
time step continuity errors : sum local = 4.0464e-11, global = -1.58826e-14, cumulative = 4.42424e-13
GAMG:  Solving for p, Initial residual = 0.000269777, Final residual = 4.32973e-05, No Iterations 1
GAMG:  Solving for p, Initial residual = 5.79746e-05, Final residual = 5.79746e-05, No Iterations 0
GAMG:  Solving for p, Initial residual = 5.79746e-05, Final residual = 5.79746e-05, No Iterations 0
GAMG:  Solving for p, Initial residual = 5.79746e-05, Final residual = 5.79746e-05, No Iterations 0
time step continuity errors : sum local = 8.24779e-11, global = -1.57707e-14, cumulative = 4.26654e-13
PIMPLE: iteration 8
DILUPBiCGStab:  Solving for Ux, Initial residual = 1.8859e-05, Final residual = 1.8859e-05, No Iterations 0
DILUPBiCGStab:  Solving for Uy, Initial residual = 0.000110691, Final residual = 3.0418e-05, No Iterations 1
DILUPBiCGStab:  Solving for Uz, Initial residual = 9.37758e-05, Final residual = 9.37758e-05, No Iterations 0
GAMG:  Solving for p, Initial residual = 0.000235082, Final residual = 3.48848e-05, No Iterations 1
GAMG:  Solving for p, Initial residual = 4.73951e-05, Final residual = 4.73951e-05, No Iterations 0
GAMG:  Solving for p, Initial residual = 4.73951e-05, Final residual = 4.73951e-05, No Iterations 0
GAMG:  Solving for p, Initial residual = 4.73951e-05, Final residual = 4.73951e-05, No Iterations 0
time step continuity errors : sum local = 6.74273e-11, global = -1.35401e-14, cumulative = 4.13113e-13
GAMG:  Solving for p, Initial residual = 0.000123493, Final residual = 1.87908e-05, No Iterations 1
GAMG:  Solving for p, Initial residual = 2.72334e-05, Final residual = 2.72334e-05, No Iterations 0
GAMG:  Solving for p, Initial residual = 2.72334e-05, Final residual = 2.72334e-05, No Iterations 0
GAMG:  Solving for p, Initial residual = 2.72334e-05, Final residual = 2.72334e-05, No Iterations 0
time step continuity errors : sum local = 3.87451e-11, global = -1.07313e-14, cumulative = 4.02382e-13
GAMG:  Solving for p, Initial residual = 5.50753e-05, Final residual = 5.50753e-05, No Iterations 0
GAMG:  Solving for p, Initial residual = 5.50753e-05, Final residual = 5.50753e-05, No Iterations 0
GAMG:  Solving for p, Initial residual = 5.50753e-05, Final residual = 5.50753e-05, No Iterations 0
GAMG:  Solving for p, Initial residual = 5.50753e-05, Final residual = 5.50753e-05, No Iterations 0
time step continuity errors : sum local = 7.83563e-11, global = -8.26817e-15, cumulative = 3.94114e-13
PIMPLE: iteration 9
DILUPBiCGStab:  Solving for Ux, Initial residual = 5.47803e-06, Final residual = 5.47803e-06, No Iterations 0
DILUPBiCGStab:  Solving for Uy, Initial residual = 7.28104e-05, Final residual = 7.28104e-05, No Iterations 0
DILUPBiCGStab:  Solving for Uz, Initial residual = 2.52437e-05, Final residual = 2.52437e-05, No Iterations 0
GAMG:  Solving for p, Initial residual = 8.57466e-05, Final residual = 8.57466e-05, No Iterations 0
GAMG:  Solving for p, Initial residual = 8.57466e-05, Final residual = 8.57466e-05, No Iterations 0
GAMG:  Solving for p, Initial residual = 8.57466e-05, Final residual = 8.57466e-05, No Iterations 0
GAMG:  Solving for p, Initial residual = 8.57466e-05, Final residual = 8.57466e-05, No Iterations 0
time step continuity errors : sum local = 1.21993e-10, global = -6.14659e-15, cumulative = 3.87967e-13
GAMG:  Solving for p, Initial residual = 0.000113159, Final residual = 1.66112e-05, No Iterations 1
GAMG:  Solving for p, Initial residual = 2.43951e-05, Final residual = 2.43951e-05, No Iterations 0
GAMG:  Solving for p, Initial residual = 2.43951e-05, Final residual = 2.43951e-05, No Iterations 0
GAMG:  Solving for p, Initial residual = 2.43951e-05, Final residual = 2.43951e-05, No Iterations 0
time step continuity errors : sum local = 3.47078e-11, global = -5.50632e-15, cumulative = 3.82461e-13
GAMG:  Solving for p, Initial residual = 3.33942e-05, Final residual = 3.33942e-05, No Iterations 0
GAMG:  Solving for p, Initial residual = 3.33942e-05, Final residual = 3.33942e-05, No Iterations 0
GAMG:  Solving for p, Initial residual = 3.33942e-05, Final residual = 3.33942e-05, No Iterations 0
GAMG:  Solving for p, Initial residual = 3.33942e-05, Final residual = 3.33942e-05, No Iterations 0
time step continuity errors : sum local = 4.7511e-11, global = -4.80571e-15, cumulative = 3.77655e-13
PIMPLE: iteration 10
DILUPBiCGStab:  Solving for Ux, Initial residual = 3.45122e-06, Final residual = 3.45122e-06, No Iterations 0
DILUPBiCGStab:  Solving for Uy, Initial residual = 3.56644e-05, Final residual = 3.56644e-05, No Iterations 0
DILUPBiCGStab:  Solving for Uz, Initial residual = 9.30292e-06, Final residual = 9.30292e-06, No Iterations 0
GAMG:  Solving for p, Initial residual = 4.27024e-05, Final residual = 4.27024e-05, No Iterations 0
GAMG:  Solving for p, Initial residual = 4.27024e-05, Final residual = 4.27024e-05, No Iterations 0
GAMG:  Solving for p, Initial residual = 4.27024e-05, Final residual = 4.27024e-05, No Iterations 0
GAMG:  Solving for p, Initial residual = 4.27024e-05, Final residual = 4.27024e-05, No Iterations 0
time step continuity errors : sum local = 6.07538e-11, global = -4.18297e-15, cumulative = 3.73472e-13
GAMG:  Solving for p, Initial residual = 5.3465e-05, Final residual = 5.3465e-05, No Iterations 0
GAMG:  Solving for p, Initial residual = 5.3465e-05, Final residual = 5.3465e-05, No Iterations 0
GAMG:  Solving for p, Initial residual = 5.3465e-05, Final residual = 5.3465e-05, No Iterations 0
GAMG:  Solving for p, Initial residual = 5.3465e-05, Final residual = 5.3465e-05, No Iterations 0
time step continuity errors : sum local = 7.60658e-11, global = -3.60967e-15, cumulative = 3.69863e-13
GAMG:  Solving for p, Initial residual = 6.07859e-05, Final residual = 6.07859e-05, No Iterations 0
GAMG:  Solving for p, Initial residual = 6.07859e-05, Final residual = 6.07859e-05, No Iterations 0
GAMG:  Solving for p, Initial residual = 6.07859e-05, Final residual = 6.07859e-05, No Iterations 0
GAMG:  Solving for p, Initial residual = 6.07859e-05, Final residual = 6.07859e-05, No Iterations 0
time step continuity errors : sum local = 8.64813e-11, global = -3.09299e-15, cumulative = 3.6677e-13
smoothSolver:  Solving for epsilon, Initial residual = 0.843827, Final residual = 0.000640572, No Iterations 10
smoothSolver:  Solving for k, Initial residual = 0.280259, Final residual = 0.00232897, No Iterations 10
PIMPLE: converged in 10 iterations
ExecutionTime = 29.01 s  ClockTime = 35 s

scalarTransport execute: s
DILUPBiCGStab:  Solving for s, Initial residual = 0.000844501, Final residual = 7.64806e-07, No Iterations 1

scalarTransport execute: s
DILUPBiCGStab:  Solving for s, Initial residual = 0.0761301, Final residual = 0.00259266, No Iterations 2

Courant Number mean: 4.4086e-05 max: 0.163583
deltaT = 0.00114027
Time = 0.00429864

PIMPLE: iteration 1
DILUPBiCGStab:  Solving for Ux, Initial residual = 0.116856, Final residual = 0.00473013, No Iterations 2
DILUPBiCGStab:  Solving for Uy, Initial residual = 0.11015, Final residual = 0.00365227, No Iterations 2
DILUPBiCGStab:  Solving for Uz, Initial residual = 0.142319, Final residual = 0.00429229, No Iterations 2
GAMG:  Solving for p, Initial residual = 0.247544, Final residual = 0.00157462, No Iterations 4
GAMG:  Solving for p, Initial residual = 0.0439842, Final residual = 0.000207747, No Iterations 3
GAMG:  Solving for p, Initial residual = 0.0038527, Final residual = 9.23032e-05, No Iterations 2
GAMG:  Solving for p, Initial residual = 0.000451213, Final residual = 5.81879e-05, No Iterations 1
time step continuity errors : sum local = 1.41769e-10, global = -1.71046e-14, cumulative = 3.49665e-13
GAMG:  Solving for p, Initial residual = 0.143086, Final residual = 0.00105488, No Iterations 4
GAMG:  Solving for p, Initial residual = 0.0396675, Final residual = 0.000181781, No Iterations 3
GAMG:  Solving for p, Initial residual = 0.00377184, Final residual = 8.62775e-05, No Iterations 2
GAMG:  Solving for p, Initial residual = 0.000448978, Final residual = 5.59579e-05, No Iterations 1
time step continuity errors : sum local = 1.16501e-10, global = -1.62363e-14, cumulative = 3.33429e-13
GAMG:  Solving for p, Initial residual = 0.0316668, Final residual = 0.000119962, No Iterations 4
GAMG:  Solving for p, Initial residual = 0.00337932, Final residual = 6.58015e-05, No Iterations 2
GAMG:  Solving for p, Initial residual = 0.000374215, Final residual = 4.5055e-05, No Iterations 1
GAMG:  Solving for p, Initial residual = 8.5905e-05, Final residual = 8.5905e-05, No Iterations 0
time step continuity errors : sum local = 1.74051e-10, global = -1.23229e-14, cumulative = 3.21106e-13
PIMPLE: iteration 2
DILUPBiCGStab:  Solving for Ux, Initial residual = 0.00439982, Final residual = 0.000189065, No Iterations 2
DILUPBiCGStab:  Solving for Uy, Initial residual = 0.0212507, Final residual = 0.000888042, No Iterations 2
DILUPBiCGStab:  Solving for Uz, Initial residual = 0.0133534, Final residual = 0.000581336, No Iterations 2
GAMG:  Solving for p, Initial residual = 0.116824, Final residual = 0.00107906, No Iterations 3
GAMG:  Solving for p, Initial residual = 0.0146865, Final residual = 0.000122368, No Iterations 3
GAMG:  Solving for p, Initial residual = 0.00158302, Final residual = 5.40314e-05, No Iterations 2
GAMG:  Solving for p, Initial residual = 0.000308201, Final residual = 3.47819e-05, No Iterations 1
time step continuity errors : sum local = 7.71381e-11, global = -6.54324e-16, cumulative = 3.20452e-13
GAMG:  Solving for p, Initial residual = 0.0716776, Final residual = 0.000243061, No Iterations 4
GAMG:  Solving for p, Initial residual = 0.0124655, Final residual = 6.82412e-05, No Iterations 3
GAMG:  Solving for p, Initial residual = 0.00112919, Final residual = 7.18383e-05, No Iterations 1
GAMG:  Solving for p, Initial residual = 0.000160768, Final residual = 3.09301e-05, No Iterations 1
time step continuity errors : sum local = 6.44944e-11, global = -6.62124e-15, cumulative = 3.1383e-13
GAMG:  Solving for p, Initial residual = 0.0143542, Final residual = 0.000115099, No Iterations 3
GAMG:  Solving for p, Initial residual = 0.0015694, Final residual = 9.91534e-05, No Iterations 1
GAMG:  Solving for p, Initial residual = 0.000247682, Final residual = 4.49376e-05, No Iterations 1
GAMG:  Solving for p, Initial residual = 0.000105766, Final residual = 3.26948e-05, No Iterations 1
time step continuity errors : sum local = 6.77877e-11, global = -3.24802e-15, cumulative = 3.10582e-13
PIMPLE: iteration 3
DILUPBiCGStab:  Solving for Ux, Initial residual = 0.000802794, Final residual = 8.38338e-05, No Iterations 1
DILUPBiCGStab:  Solving for Uy, Initial residual = 0.00584636, Final residual = 0.000205039, No Iterations 2
DILUPBiCGStab:  Solving for Uz, Initial residual = 0.00375747, Final residual = 0.00013226, No Iterations 2
GAMG:  Solving for p, Initial residual = 0.0370863, Final residual = 0.00028704, No Iterations 3
GAMG:  Solving for p, Initial residual = 0.00384373, Final residual = 7.72014e-05, No Iterations 2
GAMG:  Solving for p, Initial residual = 0.000517295, Final residual = 5.0279e-05, No Iterations 1
GAMG:  Solving for p, Initial residual = 0.000114655, Final residual = 3.04924e-05, No Iterations 1
time step continuity errors : sum local = 6.31709e-11, global = 1.26328e-14, cumulative = 3.23215e-13
GAMG:  Solving for p, Initial residual = 0.018503, Final residual = 6.04619e-05, No Iterations 4
GAMG:  Solving for p, Initial residual = 0.00255079, Final residual = 3.75629e-05, No Iterations 2
GAMG:  Solving for p, Initial residual = 0.000273477, Final residual = 2.22303e-05, No Iterations 1
GAMG:  Solving for p, Initial residual = 4.8044e-05, Final residual = 4.8044e-05, No Iterations 0
time step continuity errors : sum local = 1.00071e-10, global = 2.67833e-14, cumulative = 3.49998e-13
GAMG:  Solving for p, Initial residual = 0.00588566, Final residual = 3.6976e-05, No Iterations 3
GAMG:  Solving for p, Initial residual = 0.000574689, Final residual = 3.08008e-05, No Iterations 1
GAMG:  Solving for p, Initial residual = 9.63287e-05, Final residual = 9.63287e-05, No Iterations 0
GAMG:  Solving for p, Initial residual = 9.63287e-05, Final residual = 9.63287e-05, No Iterations 0
time step continuity errors : sum local = 2.00617e-10, global = 3.70217e-14, cumulative = 3.8702e-13
PIMPLE: iteration 4
DILUPBiCGStab:  Solving for Ux, Initial residual = 0.000348321, Final residual = 3.88661e-05, No Iterations 1
DILUPBiCGStab:  Solving for Uy, Initial residual = 0.00262459, Final residual = 9.53481e-05, No Iterations 2
DILUPBiCGStab:  Solving for Uz, Initial residual = 0.00171227, Final residual = 6.37268e-05, No Iterations 2
GAMG:  Solving for p, Initial residual = 0.0172248, Final residual = 0.000131506, No Iterations 3
GAMG:  Solving for p, Initial residual = 0.00168604, Final residual = 9.93691e-05, No Iterations 1
GAMG:  Solving for p, Initial residual = 0.000281072, Final residual = 6.55907e-05, No Iterations 1
GAMG:  Solving for p, Initial residual = 0.000245003, Final residual = 3.30759e-05, No Iterations 1
time step continuity errors : sum local = 6.91454e-11, global = 1.50472e-14, cumulative = 4.02067e-13
GAMG:  Solving for p, Initial residual = 0.00837043, Final residual = 8.22522e-05, No Iterations 3
GAMG:  Solving for p, Initial residual = 0.000963673, Final residual = 5.56732e-05, No Iterations 1
GAMG:  Solving for p, Initial residual = 0.000148936, Final residual = 3.52671e-05, No Iterations 1
GAMG:  Solving for p, Initial residual = 0.000129757, Final residual = 1.79227e-05, No Iterations 1
time step continuity errors : sum local = 3.73142e-11, global = -5.75393e-15, cumulative = 3.96313e-13
GAMG:  Solving for p, Initial residual = 0.00293024, Final residual = 7.40134e-05, No Iterations 2
GAMG:  Solving for p, Initial residual = 0.000302665, Final residual = 3.06171e-05, No Iterations 1
GAMG:  Solving for p, Initial residual = 6.82868e-05, Final residual = 6.82868e-05, No Iterations 0
GAMG:  Solving for p, Initial residual = 6.82868e-05, Final residual = 6.82868e-05, No Iterations 0
time step continuity errors : sum local = 1.42087e-10, global = -8.01711e-15, cumulative = 3.88296e-13
PIMPLE: iteration 5
DILUPBiCGStab:  Solving for Ux, Initial residual = 0.000186531, Final residual = 6.00291e-05, No Iterations 1
DILUPBiCGStab:  Solving for Uy, Initial residual = 0.00137022, Final residual = 5.23099e-05, No Iterations 2
DILUPBiCGStab:  Solving for Uz, Initial residual = 0.000936472, Final residual = 3.86364e-05, No Iterations 2
GAMG:  Solving for p, Initial residual = 0.00894169, Final residual = 8.85325e-05, No Iterations 3
GAMG:  Solving for p, Initial residual = 0.00104326, Final residual = 7.08154e-05, No Iterations 1
GAMG:  Solving for p, Initial residual = 0.000174237, Final residual = 5.35661e-05, No Iterations 1
GAMG:  Solving for p, Initial residual = 0.000209287, Final residual = 2.09313e-05, No Iterations 1
time step continuity errors : sum local = 4.34412e-11, global = -4.19932e-15, cumulative = 3.84097e-13
GAMG:  Solving for p, Initial residual = 0.00421512, Final residual = 4.97871e-05, No Iterations 3
GAMG:  Solving for p, Initial residual = 0.000585502, Final residual = 3.88862e-05, No Iterations 1
GAMG:  Solving for p, Initial residual = 9.68223e-05, Final residual = 9.68223e-05, No Iterations 0
GAMG:  Solving for p, Initial residual = 9.68223e-05, Final residual = 9.68223e-05, No Iterations 0
time step continuity errors : sum local = 2.0141e-10, global = 7.45869e-15, cumulative = 3.91556e-13
GAMG:  Solving for p, Initial residual = 0.00152474, Final residual = 6.0725e-05, No Iterations 2
GAMG:  Solving for p, Initial residual = 0.000288184, Final residual = 3.59744e-05, No Iterations 1
GAMG:  Solving for p, Initial residual = 0.000133556, Final residual = 1.88719e-05, No Iterations 1
GAMG:  Solving for p, Initial residual = 7.59042e-05, Final residual = 7.59042e-05, No Iterations 0
time step continuity errors : sum local = 1.57914e-10, global = -1.0785e-14, cumulative = 3.80771e-13
PIMPLE: iteration 6
[...]
GAMG:  Solving for p, Initial residual = 9.00159e-05, Final residual = 9.00159e-05, No Iterations 0
time step continuity errors : sum local = 3.00428e-09, global = -4.62347e-10, cumulative = -7.51957e-07
GAMG:  Solving for p, Initial residual = 0.0153617, Final residual = 7.55226e-05, No Iterations 3
GAMG:  Solving for p, Initial residual = 0.000955332, Final residual = 6.23254e-05, No Iterations 1
GAMG:  Solving for p, Initial residual = 0.00011919, Final residual = 4.62316e-05, No Iterations 1
GAMG:  Solving for p, Initial residual = 0.00014382, Final residual = 1.68736e-05, No Iterations 1
time step continuity errors : sum local = 5.56222e-10, global = -1.45239e-10, cumulative = -7.52102e-07
PIMPLE: iteration 2
DILUPBiCGStab:  Solving for Ux, Initial residual = 0.00144589, Final residual = 0.000126151, No Iterations 1
DILUPBiCGStab:  Solving for Uy, Initial residual = 0.0032178, Final residual = 0.000266053, No Iterations 1
DILUPBiCGStab:  Solving for Uz, Initial residual = 0.00111219, Final residual = 9.60903e-05, No Iterations 1
GAMG:  Solving for p, Initial residual = 0.0831089, Final residual = 0.000623155, No Iterations 3
GAMG:  Solving for p, Initial residual = 0.00719292, Final residual = 5.66247e-05, No Iterations 5
GAMG:  Solving for p, Initial residual = 0.0012899, Final residual = 5.40386e-05, No Iterations 1
GAMG:  Solving for p, Initial residual = 0.000129531, Final residual = 4.90758e-05, No Iterations 1
time step continuity errors : sum local = 1.35141e-09, global = -3.52795e-10, cumulative = -7.52455e-07
GAMG:  Solving for p, Initial residual = 0.0427408, Final residual = 0.000209793, No Iterations 4
GAMG:  Solving for p, Initial residual = 0.00499763, Final residual = 9.73868e-05, No Iterations 2
GAMG:  Solving for p, Initial residual = 0.000567848, Final residual = 3.60632e-05, No Iterations 1
GAMG:  Solving for p, Initial residual = 9.21654e-05, Final residual = 9.21654e-05, No Iterations 0
time step continuity errors : sum local = 2.74794e-09, global = -4.14004e-10, cumulative = -7.52869e-07
GAMG:  Solving for p, Initial residual = 0.0110409, Final residual = 5.87749e-05, No Iterations 3
GAMG:  Solving for p, Initial residual = 0.00068579, Final residual = 5.29535e-05, No Iterations 1
GAMG:  Solving for p, Initial residual = 9.51273e-05, Final residual = 9.51273e-05, No Iterations 0
GAMG:  Solving for p, Initial residual = 9.51273e-05, Final residual = 9.51273e-05, No Iterations 0
time step continuity errors : sum local = 2.88004e-09, global = -1.20323e-10, cumulative = -7.52989e-07
PIMPLE: iteration 3
DILUPBiCGStab:  Solving for Ux, Initial residual = 0.000513891, Final residual = 7.37374e-05, No Iterations 1
DILUPBiCGStab:  Solving for Uy, Initial residual = 0.00135304, Final residual = 6.46712e-05, No Iterations 2
DILUPBiCGStab:  Solving for Uz, Initial residual = 0.000342892, Final residual = 8.47648e-05, No Iterations 1
GAMG:  Solving for p, Initial residual = 0.0364768, Final residual = 0.000269941, No Iterations 3
GAMG:  Solving for p, Initial residual = 0.00292643, Final residual = 5.7395e-05, No Iterations 2
GAMG:  Solving for p, Initial residual = 0.000302985, Final residual = 3.55334e-05, No Iterations 1
GAMG:  Solving for p, Initial residual = 7.16998e-05, Final residual = 7.16998e-05, No Iterations 0
time step continuity errors : sum local = 2.29812e-09, global = -2.18154e-10, cumulative = -7.53207e-07
GAMG:  Solving for p, Initial residual = 0.0193461, Final residual = 0.000183666, No Iterations 3
GAMG:  Solving for p, Initial residual = 0.00229412, Final residual = 8.92335e-05, No Iterations 1
GAMG:  Solving for p, Initial residual = 0.000211713, Final residual = 3.70999e-05, No Iterations 1
GAMG:  Solving for p, Initial residual = 7.59581e-05, Final residual = 7.59581e-05, No Iterations 0
time step continuity errors : sum local = 2.37739e-09, global = 2.96777e-10, cumulative = -7.52911e-07
GAMG:  Solving for p, Initial residual = 0.00677758, Final residual = 8.48376e-05, No Iterations 2
GAMG:  Solving for p, Initial residual = 0.000421472, Final residual = 3.95984e-05, No Iterations 1
GAMG:  Solving for p, Initial residual = 6.56452e-05, Final residual = 6.56452e-05, No Iterations 0
GAMG:  Solving for p, Initial residual = 6.56452e-05, Final residual = 6.56452e-05, No Iterations 0
time step continuity errors : sum local = 2.03808e-09, global = 3.40957e-10, cumulative = -7.5257e-07
PIMPLE: iteration 4
DILUPBiCGStab:  Solving for Ux, Initial residual = 0.000325625, Final residual = 4.89432e-05, No Iterations 1
DILUPBiCGStab:  Solving for Uy, Initial residual = 0.00094295, Final residual = 4.90583e-05, No Iterations 2
DILUPBiCGStab:  Solving for Uz, Initial residual = 0.000224094, Final residual = 5.64993e-05, No Iterations 1
GAMG:  Solving for p, Initial residual = 0.0263778, Final residual = 0.000203675, No Iterations 3
GAMG:  Solving for p, Initial residual = 0.00229903, Final residual = 5.39435e-05, No Iterations 2
GAMG:  Solving for p, Initial residual = 0.000259784, Final residual = 2.87631e-05, No Iterations 1
GAMG:  Solving for p, Initial residual = 6.42848e-05, Final residual = 6.42848e-05, No Iterations 0
time step continuity errors : sum local = 1.91355e-09, global = 3.37367e-10, cumulative = -7.52232e-07
GAMG:  Solving for p, Initial residual = 0.0150068, Final residual = 0.000149979, No Iterations 3
GAMG:  Solving for p, Initial residual = 0.00175909, Final residual = 7.37311e-05, No Iterations 1
GAMG:  Solving for p, Initial residual = 0.000166805, Final residual = 3.21274e-05, No Iterations 1
GAMG:  Solving for p, Initial residual = 6.54876e-05, Final residual = 6.54876e-05, No Iterations 0
time step continuity errors : sum local = 1.98214e-09, global = -2.20925e-10, cumulative = -7.52453e-07
GAMG:  Solving for p, Initial residual = 0.00516461, Final residual = 6.80314e-05, No Iterations 2
GAMG:  Solving for p, Initial residual = 0.000328615, Final residual = 3.19091e-05, No Iterations 1
GAMG:  Solving for p, Initial residual = 5.51641e-05, Final residual = 5.51641e-05, No Iterations 0
GAMG:  Solving for p, Initial residual = 5.51641e-05, Final residual = 5.51641e-05, No Iterations 0
time step continuity errors : sum local = 1.67941e-09, global = -2.90362e-10, cumulative = -7.52744e-07
PIMPLE: iteration 5
DILUPBiCGStab:  Solving for Ux, Initial residual = 0.000230058, Final residual = 9.86085e-05, No Iterations 1
DILUPBiCGStab:  Solving for Uy, Initial residual = 0.000697687, Final residual = 3.69957e-05, No Iterations 2
DILUPBiCGStab:  Solving for Uz, Initial residual = 0.000171162, Final residual = 4.31218e-05, No Iterations 1
GAMG:  Solving for p, Initial residual = 0.0187926, Final residual = 0.000147945, No Iterations 3
GAMG:  Solving for p, Initial residual = 0.00150357, Final residual = 8.55616e-05, No Iterations 1
GAMG:  Solving for p, Initial residual = 0.000161673, Final residual = 4.43051e-05, No Iterations 1
GAMG:  Solving for p, Initial residual = 0.000121254, Final residual = 2.70463e-05, No Iterations 1
time step continuity errors : sum local = 8.49489e-10, global = -4.64827e-10, cumulative = -7.53208e-07
GAMG:  Solving for p, Initial residual = 0.00986892, Final residual = 3.59071e-05, No Iterations 4
GAMG:  Solving for p, Initial residual = 0.00115124, Final residual = 4.29499e-05, No Iterations 1
GAMG:  Solving for p, Initial residual = 0.000105885, Final residual = 1.29329e-05, No Iterations 1
GAMG:  Solving for p, Initial residual = 3.30121e-05, Final residual = 3.30121e-05, No Iterations 0
time step continuity errors : sum local = 1.02434e-09, global = 1.69125e-10, cumulative = -7.53039e-07
GAMG:  Solving for p, Initial residual = 0.0036432, Final residual = 4.72645e-05, No Iterations 2
GAMG:  Solving for p, Initial residual = 0.000232668, Final residual = 2.42311e-05, No Iterations 1
GAMG:  Solving for p, Initial residual = 4.33221e-05, Final residual = 4.33221e-05, No Iterations 0
GAMG:  Solving for p, Initial residual = 4.33221e-05, Final residual = 4.33221e-05, No Iterations 0
time step continuity errors : sum local = 1.33831e-09, global = 1.63174e-10, cumulative = -7.52876e-07
PIMPLE: iteration 6
DILUPBiCGStab:  Solving for Ux, Initial residual = 0.000168262, Final residual = 6.23709e-05, No Iterations 1
DILUPBiCGStab:  Solving for Uy, Initial residual = 0.00051982, Final residual = 7.98717e-05, No Iterations 1
DILUPBiCGStab:  Solving for Uz, Initial residual = 0.000123807, Final residual = 3.15302e-05, No Iterations 1
GAMG:  Solving for p, Initial residual = 0.0130288, Final residual = 0.000100424, No Iterations 3
GAMG:  Solving for p, Initial residual = 0.00101021, Final residual = 6.25657e-05, No Iterations 1
GAMG:  Solving for p, Initial residual = 0.000113704, Final residual = 3.67442e-05, No Iterations 1
GAMG:  Solving for p, Initial residual = 0.000107326, Final residual = 1.75877e-05, No Iterations 1
time step continuity errors : sum local = 5.3146e-10, global = 3.06743e-10, cumulative = -7.52569e-07
GAMG:  Solving for p, Initial residual = 0.00669637, Final residual = 6.74465e-05, No Iterations 3
GAMG:  Solving for p, Initial residual = 0.000730069, Final residual = 3.49185e-05, No Iterations 1
GAMG:  Solving for p, Initial residual = 7.3754e-05, Final residual = 7.3754e-05, No Iterations 0
GAMG:  Solving for p, Initial residual = 7.3754e-05, Final residual = 7.3754e-05, No Iterations 0
time step continuity errors : sum local = 2.24653e-09, global = -6.09434e-10, cumulative = -7.53179e-07
GAMG:  Solving for p, Initial residual = 0.00251867, Final residual = 3.95459e-05, No Iterations 2
GAMG:  Solving for p, Initial residual = 0.000168869, Final residual = 2.1113e-05, No Iterations 1
GAMG:  Solving for p, Initial residual = 4.408e-05, Final residual = 4.408e-05, No Iterations 0
GAMG:  Solving for p, Initial residual = 4.408e-05, Final residual = 4.408e-05, No Iterations 0
time step continuity errors : sum local = 1.34745e-09, global = -1.5215e-10, cumulative = -7.53331e-07
PIMPLE: iteration 7
DILUPBiCGStab:  Solving for Ux, Initial residual = 0.000111124, Final residual = 4.02601e-05, No Iterations 1
DILUPBiCGStab:  Solving for Uy, Initial residual = 0.000366187, Final residual = 5.36116e-05, No Iterations 1
DILUPBiCGStab:  Solving for Uz, Initial residual = 8.94836e-05, Final residual = 8.94836e-05, No Iterations 0
GAMG:  Solving for p, Initial residual = 0.00809574, Final residual = 4.16863e-05, No Iterations 3
GAMG:  Solving for p, Initial residual = 0.000494552, Final residual = 2.8139e-05, No Iterations 1
GAMG:  Solving for p, Initial residual = 5.31594e-05, Final residual = 5.31594e-05, No Iterations 0
GAMG:  Solving for p, Initial residual = 5.31594e-05, Final residual = 5.31594e-05, No Iterations 0
time step continuity errors : sum local = 1.64425e-09, global = -4.77311e-10, cumulative = -7.53808e-07
GAMG:  Solving for p, Initial residual = 0.00434181, Final residual = 3.52096e-05, No Iterations 3
GAMG:  Solving for p, Initial residual = 0.000384179, Final residual = 2.63389e-05, No Iterations 1
GAMG:  Solving for p, Initial residual = 4.61459e-05, Final residual = 4.61459e-05, No Iterations 0
GAMG:  Solving for p, Initial residual = 4.61459e-05, Final residual = 4.61459e-05, No Iterations 0
time step continuity errors : sum local = 1.42264e-09, global = 2.97219e-10, cumulative = -7.53511e-07
GAMG:  Solving for p, Initial residual = 0.00150233, Final residual = 8.8043e-05, No Iterations 1
GAMG:  Solving for p, Initial residual = 0.000130958, Final residual = 2.87609e-05, No Iterations 1
GAMG:  Solving for p, Initial residual = 4.48679e-05, Final residual = 4.48679e-05, No Iterations 0
GAMG:  Solving for p, Initial residual = 4.48679e-05, Final residual = 4.48679e-05, No Iterations 0
time step continuity errors : sum local = 1.38073e-09, global = 3.38215e-10, cumulative = -7.53173e-07
PIMPLE: iteration 8
DILUPBiCGStab:  Solving for Ux, Initial residual = 6.83744e-05, Final residual = 6.83744e-05, No Iterations 0
DILUPBiCGStab:  Solving for Uy, Initial residual = 0.000243336, Final residual = 3.64272e-05, No Iterations 1
DILUPBiCGStab:  Solving for Uz, Initial residual = 2.91977e-05, Final residual = 2.91977e-05, No Iterations 0
GAMG:  Solving for p, Initial residual = 0.00406047, Final residual = 8.8338e-05, No Iterations 2
GAMG:  Solving for p, Initial residual = 0.000330452, Final residual = 3.79109e-05, No Iterations 1
GAMG:  Solving for p, Initial residual = 5.6358e-05, Final residual = 5.6358e-05, No Iterations 0
GAMG:  Solving for p, Initial residual = 5.6358e-05, Final residual = 5.6358e-05, No Iterations 0
time step continuity errors : sum local = 1.7241e-09, global = 6.22087e-10, cumulative = -7.52551e-07
GAMG:  Solving for p, Initial residual = 0.00223916, Final residual = 7.20005e-05, No Iterations 2
GAMG:  Solving for p, Initial residual = 0.000234336, Final residual = 2.71281e-05, No Iterations 1
GAMG:  Solving for p, Initial residual = 3.85175e-05, Final residual = 3.85175e-05, No Iterations 0
GAMG:  Solving for p, Initial residual = 3.85175e-05, Final residual = 3.85175e-05, No Iterations 0
time step continuity errors : sum local = 1.17978e-09, global = -1.17246e-10, cumulative = -7.52668e-07
GAMG:  Solving for p, Initial residual = 0.000741577, Final residual = 6.05996e-05, No Iterations 1
GAMG:  Solving for p, Initial residual = 8.26503e-05, Final residual = 8.26503e-05, No Iterations 0
GAMG:  Solving for p, Initial residual = 8.26503e-05, Final residual = 8.26503e-05, No Iterations 0
GAMG:  Solving for p, Initial residual = 8.26503e-05, Final residual = 8.26503e-05, No Iterations 0
time step continuity errors : sum local = 2.53337e-09, global = -6.56554e-10, cumulative = -7.53324e-07
PIMPLE: iteration 9
DILUPBiCGStab:  Solving for Ux, Initial residual = 1.94264e-05, Final residual = 1.94264e-05, No Iterations 0
DILUPBiCGStab:  Solving for Uy, Initial residual = 0.000152966, Final residual = 6.24332e-05, No Iterations 1
DILUPBiCGStab:  Solving for Uz, Initial residual = 2.52268e-05, Final residual = 2.52268e-05, No Iterations 0
GAMG:  Solving for p, Initial residual = 0.0023846, Final residual = 4.40436e-05, No Iterations 2
GAMG:  Solving for p, Initial residual = 0.000164225, Final residual = 2.24886e-05, No Iterations 1
GAMG:  Solving for p, Initial residual = 3.37825e-05, Final residual = 3.37825e-05, No Iterations 0
GAMG:  Solving for p, Initial residual = 3.37825e-05, Final residual = 3.37825e-05, No Iterations 0
time step continuity errors : sum local = 1.03949e-09, global = -3.37785e-10, cumulative = -7.53662e-07
GAMG:  Solving for p, Initial residual = 0.00120987, Final residual = 2.80461e-05, No Iterations 2
GAMG:  Solving for p, Initial residual = 0.000100348, Final residual = 1.2812e-05, No Iterations 1
GAMG:  Solving for p, Initial residual = 1.8225e-05, Final residual = 1.8225e-05, No Iterations 0
GAMG:  Solving for p, Initial residual = 1.8225e-05, Final residual = 1.8225e-05, No Iterations 0
time step continuity errors : sum local = 5.60216e-10, global = 1.18165e-10, cumulative = -7.53544e-07
GAMG:  Solving for p, Initial residual = 0.000455924, Final residual = 3.04785e-05, No Iterations 1
GAMG:  Solving for p, Initial residual = 4.43106e-05, Final residual = 4.43106e-05, No Iterations 0
GAMG:  Solving for p, Initial residual = 4.43106e-05, Final residual = 4.43106e-05, No Iterations 0
GAMG:  Solving for p, Initial residual = 4.43106e-05, Final residual = 4.43106e-05, No Iterations 0
time step continuity errors : sum local = 1.36131e-09, global = 4.20263e-10, cumulative = -7.53124e-07
PIMPLE: iteration 10
DILUPBiCGStab:  Solving for Ux, Initial residual = 1.66358e-05, Final residual = 1.66358e-05, No Iterations 0
DILUPBiCGStab:  Solving for Uy, Initial residual = 9.30512e-05, Final residual = 9.30512e-05, No Iterations 0
DILUPBiCGStab:  Solving for Uz, Initial residual = 1.4534e-05, Final residual = 1.4534e-05, No Iterations 0
GAMG:  Solving for p, Initial residual = 0.000396595, Final residual = 2.81612e-05, No Iterations 1
GAMG:  Solving for p, Initial residual = 3.71797e-05, Final residual = 3.71797e-05, No Iterations 0
GAMG:  Solving for p, Initial residual = 3.71797e-05, Final residual = 3.71797e-05, No Iterations 0
GAMG:  Solving for p, Initial residual = 3.71797e-05, Final residual = 3.71797e-05, No Iterations 0
time step continuity errors : sum local = 1.14162e-09, global = 5.43348e-10, cumulative = -7.52581e-07
GAMG:  Solving for p, Initial residual = 0.000196095, Final residual = 1.98191e-05, No Iterations 1
GAMG:  Solving for p, Initial residual = 2.53718e-05, Final residual = 2.53718e-05, No Iterations 0
GAMG:  Solving for p, Initial residual = 2.53718e-05, Final residual = 2.53718e-05, No Iterations 0
GAMG:  Solving for p, Initial residual = 2.53718e-05, Final residual = 2.53718e-05, No Iterations 0
time step continuity errors : sum local = 7.78885e-10, global = 3.59768e-10, cumulative = -7.52221e-07
GAMG:  Solving for p, Initial residual = 0.000122414, Final residual = 1.30955e-05, No Iterations 1
GAMG:  Solving for p, Initial residual = 1.6852e-05, Final residual = 1.6852e-05, No Iterations 0
GAMG:  Solving for p, Initial residual = 1.6852e-05, Final residual = 1.6852e-05, No Iterations 0
GAMG:  Solving for p, Initial residual = 1.6852e-05, Final residual = 1.6852e-05, No Iterations 0
time step continuity errors : sum local = 5.17282e-10, global = 1.8078e-10, cumulative = -7.5204e-07
PIMPLE: iteration 11
DILUPBiCGStab:  Solving for Ux, Initial residual = 9.23158e-06, Final residual = 9.23158e-06, No Iterations 0
DILUPBiCGStab:  Solving for Uy, Initial residual = 2.91522e-05, Final residual = 2.91522e-05, No Iterations 0
DILUPBiCGStab:  Solving for Uz, Initial residual = 7.25184e-06, Final residual = 7.25184e-06, No Iterations 0
GAMG:  Solving for p, Initial residual = 8.92494e-05, Final residual = 8.92494e-05, No Iterations 0
GAMG:  Solving for p, Initial residual = 8.92494e-05, Final residual = 8.92494e-05, No Iterations 0
GAMG:  Solving for p, Initial residual = 8.92494e-05, Final residual = 8.92494e-05, No Iterations 0
GAMG:  Solving for p, Initial residual = 8.92494e-05, Final residual = 8.92494e-05, No Iterations 0
time step continuity errors : sum local = 2.73955e-09, global = -1.35978e-10, cumulative = -7.52176e-07
GAMG:  Solving for p, Initial residual = 0.000134322, Final residual = 1.26854e-05, No Iterations 1
GAMG:  Solving for p, Initial residual = 1.72257e-05, Final residual = 1.72257e-05, No Iterations 0
GAMG:  Solving for p, Initial residual = 1.72257e-05, Final residual = 1.72257e-05, No Iterations 0
GAMG:  Solving for p, Initial residual = 1.72257e-05, Final residual = 1.72257e-05, No Iterations 0
time step continuity errors : sum local = 5.2874e-10, global = -5.74494e-11, cumulative = -7.52233e-07
GAMG:  Solving for p, Initial residual = 4.88855e-05, Final residual = 4.88855e-05, No Iterations 0
GAMG:  Solving for p, Initial residual = 4.88855e-05, Final residual = 4.88855e-05, No Iterations 0
GAMG:  Solving for p, Initial residual = 4.88855e-05, Final residual = 4.88855e-05, No Iterations 0
GAMG:  Solving for p, Initial residual = 4.88855e-05, Final residual = 4.88855e-05, No Iterations 0
time step continuity errors : sum local = 1.50051e-09, global = -1.24559e-10, cumulative = -7.52358e-07
smoothSolver:  Solving for epsilon, Initial residual = 0.0214071, Final residual = 3.84606e-07, No Iterations 10
smoothSolver:  Solving for k, Initial residual = 0.0246351, Final residual = 1.54416e-06, No Iterations 10
PIMPLE: converged in 11 iterations
ExecutionTime = 1126.55 s  ClockTime = 1159 s

scalarTransport execute: s
DILUPBiCGStab:  Solving for s, Initial residual = 0.00106089, Final residual = 6.57325e-06, No Iterations 1

scalarTransport execute: s
DILUPBiCGStab:  Solving for s, Initial residual = 0.00117267, Final residual = 3.70348e-05, No Iterations 1

    functionObjects::vorticity vorticity1 writing field: vorticityField
End

Finalising parallel run
# mpiexec: finished at Wed 12 May 08:46:50 BST 2021
