/*---------------------------------------------------------------------------*\
| =========                 |                                                 |
| \\      /  F ield         | OpenFOAM: The Open Source CFD Toolbox           |
|  \\    /   O peration     | Version:  2012                                  |
|   \\  /    A nd           | Website:  www.openfoam.com                      |
|    \\/     M anipulation  |                                                 |
\*---------------------------------------------------------------------------*/
Build  : _269d0ffd5c-20210619 OPENFOAM=2012 patch=210618
Arch   : "LSB;label=32;scalar=64"
Exec   : blockMesh
Date   : Aug 16 2022
Time   : 15:08:02
Host   : f485359ed3ce
PID    : 65340
I/O    : uncollated
Case   : /root/pulsed-reactor-optimisation/simulation-integration/output_validation/020d79d6-b178-4f7a-afc6-bd97bd2ab07a
nProcs : 1
trapFpe: Floating point exception trapping enabled (FOAM_SIGFPE).
fileModificationChecking : Monitoring run-time modified files using timeStampMaster (fileModificationSkew 5, maxFileModificationPolls 20)
allowSystemOperations : Allowing user-supplied system call operations

// * * * * * * * * * * * * * * * * * * * * * * * * * * * * * * * * * * * * * //
Create time

Creating block mesh from "system/blockMeshDict"
Creating block edges
Creating block faces
Creating topology blocks
Creating topology patches

Creating block mesh topology

Check topology

	Basic statistics
		Number of internal faces : 6476
		Number of boundary faces : 968
		Number of defined boundary faces : 968
		Number of undefined boundary faces : 0
	Checking patch -> block consistency

Creating block offsets
Creating merge list (geometric search)...

Creating polyMesh from blockMesh
Creating patches
Creating cells
Creating points with scale 1
    Block 0 cell size :
        i : 0.00031712 .. 0.00031712
        j : 8.25e-05 .. 8.25e-05
        k : 0.000232445 .. 0.000232445

    Block 1 cell size :
        i : 0.000343506 .. 0.000343506
        j : 8.27326e-05 .. 8.27326e-05
        k : 0.000232425 .. 0.000232425

    Block 2 cell size :
        i : 0.000317121 .. 0.000317121
        j : 8.33512e-05 .. 8.33512e-05
        k : 0.00023237 .. 0.00023237

    Block 3 cell size :
        i : 0.000343507 .. 0.000343507
        j : 8.39206e-05 .. 8.39206e-05
        k : 0.000232315 .. 0.000232315

    Block 4 cell size :
        i : 0.00031712 .. 0.00031712
        j : 8.41665e-05 .. 8.41665e-05
        k : 0.000232295 .. 0.000232295

    Block 5 cell size :
        i : 0.000343506 .. 0.000343506
        j : 8.39206e-05 .. 8.39206e-05
        k : 0.000232315 .. 0.000232315

    Block 6 cell size :
        i : 0.000317121 .. 0.000317121
        j : 8.32989e-05 .. 8.32989e-05
        k : 0.000232375 .. 0.000232375

    Block 7 cell size :
        i : 0.00031712 .. 0.00031712
        j : 8.27326e-05 .. 8.27326e-05
        k : 0.000232425 .. 0.000232425

    Block 8 cell size :
        i : 0.000253696 .. 0.000253696
        j : 0.000132 .. 0.000132
        k : 0.00023243 .. 0.00023243

    Block 9 cell size :
        i : 0.000274804 .. 0.000274804
        j : 0.000132373 .. 0.000132373
        k : 0.000232415 .. 0.000232415

    Block 10 cell size :
        i : 0.000253696 .. 0.000253696
        j : 0.000133361 .. 0.000133361
        k : 0.00023237 .. 0.00023237

    Block 11 cell size :
        i : 0.000274806 .. 0.000274806
        j : 0.000134273 .. 0.000134273
        k : 0.00023233 .. 0.00023233

    Block 12 cell size :
        i : 0.000253695 .. 0.000253695
        j : 0.000134665 .. 0.000134665
        k : 0.00023231 .. 0.00023231

    Block 13 cell size :
        i : 0.000274804 .. 0.000274804
        j : 0.000134273 .. 0.000134273
        k : 0.00023233 .. 0.00023233

    Block 14 cell size :
        i : 0.000253696 .. 0.000253696
        j : 0.000133276 .. 0.000133276
        k : 0.000232375 .. 0.000232375

    Block 15 cell size :
        i : 0.000253696 .. 0.000253696
        j : 0.000132373 .. 0.000132373
        k : 0.000232415 .. 0.000232415

    Block 16 cell size :
        i : 0.000148664 .. 0.000148664
        j : 0.000198 .. 0.000198
        k : 0.00023241 .. 0.00023241

    Block 17 cell size :
        i : 0.000148665 .. 0.000148665
        j : 0.000200042 .. 0.000200042
        k : 0.00023237 .. 0.00023237

    Block 18 cell size :
        i : 0.000148665 .. 0.000148665
        j : 0.000202 .. 0.000202
        k : 0.000232335 .. 0.000232335

    Block 19 cell size :
        i : 0.000148665 .. 0.000148665
        j : 0.000199915 .. 0.000199915
        k : 0.000232375 .. 0.000232375

    Block 20 cell size :
        i : 0.00031712 .. 0.00031712
        j : 8.25e-05 .. 8.25e-05
        k : 0.000232485 .. 0.000232485

    Block 21 cell size :
        i : 0.000343506 .. 0.000343506
        j : 8.27326e-05 .. 8.27326e-05
        k : 0.00023245 .. 0.00023245

    Block 22 cell size :
        i : 0.000317121 .. 0.000317121
        j : 8.33512e-05 .. 8.33512e-05
        k : 0.00023237 .. 0.00023237

    Block 23 cell size :
        i : 0.000343507 .. 0.000343507
        j : 8.39206e-05 .. 8.39206e-05
        k : 0.000232295 .. 0.000232295

    Block 24 cell size :
        i : 0.00031712 .. 0.00031712
        j : 8.41665e-05 .. 8.41665e-05
        k : 0.00023226 .. 0.00023226

    Block 25 cell size :
        i : 0.000343506 .. 0.000343506
        j : 8.39206e-05 .. 8.39206e-05
        k : 0.000232295 .. 0.000232295

    Block 26 cell size :
        i : 0.000317121 .. 0.000317121
        j : 8.32989e-05 .. 8.32989e-05
        k : 0.000232375 .. 0.000232375

    Block 27 cell size :
        i : 0.00031712 .. 0.00031712
        j : 8.27326e-05 .. 8.27326e-05
        k : 0.00023245 .. 0.00023245

    Block 28 cell size :
        i : 0.000253696 .. 0.000253696
        j : 0.000132 .. 0.000132
        k : 0.00023246 .. 0.00023246

    Block 29 cell size :
        i : 0.000274804 .. 0.000274804
        j : 0.000132373 .. 0.000132373
        k : 0.000232435 .. 0.000232435

    Block 30 cell size :
        i : 0.000253696 .. 0.000253696
        j : 0.000133361 .. 0.000133361
        k : 0.00023237 .. 0.00023237

    Block 31 cell size :
        i : 0.000274806 .. 0.000274806
        j : 0.000134273 .. 0.000134273
        k : 0.000232305 .. 0.000232305

    Block 32 cell size :
        i : 0.000253695 .. 0.000253695
        j : 0.000134665 .. 0.000134665
        k : 0.000232285 .. 0.000232285

    Block 33 cell size :
        i : 0.000274804 .. 0.000274804
        j : 0.000134273 .. 0.000134273
        k : 0.000232305 .. 0.000232305

    Block 34 cell size :
        i : 0.000253696 .. 0.000253696
        j : 0.000133276 .. 0.000133276
        k : 0.000232375 .. 0.000232375

    Block 35 cell size :
        i : 0.000253696 .. 0.000253696
        j : 0.000132373 .. 0.000132373
        k : 0.000232435 .. 0.000232435

    Block 36 cell size :
        i : 0.000148664 .. 0.000148664
        j : 0.000198 .. 0.000198
        k : 0.000232425 .. 0.000232425

    Block 37 cell size :
        i : 0.000148665 .. 0.000148665
        j : 0.000200042 .. 0.000200042
        k : 0.00023237 .. 0.00023237

    Block 38 cell size :
        i : 0.000148665 .. 0.000148665
        j : 0.000202 .. 0.000202
        k : 0.000232315 .. 0.000232315

    Block 39 cell size :
        i : 0.000148665 .. 0.000148665
        j : 0.000199915 .. 0.000199915
        k : 0.00023237 .. 0.00023237

    Block 40 cell size :
        i : 0.000317121 .. 0.000317121
        j : 8.25e-05 .. 8.25e-05
        k : 0.00023253 .. 0.00023253

    Block 41 cell size :
        i : 0.000343505 .. 0.000343505
        j : 8.27314e-05 .. 8.27314e-05
        k : 0.00023249 .. 0.00023249

    Block 42 cell size :
        i : 0.000317121 .. 0.000317121
        j : 8.33512e-05 .. 8.33512e-05
        k : 0.00023237 .. 0.00023237

    Block 43 cell size :
        i : 0.000343507 .. 0.000343507
        j : 8.39206e-05 .. 8.39206e-05
        k : 0.00023226 .. 0.00023226

    Block 44 cell size :
        i : 0.00031712 .. 0.00031712
        j : 8.41665e-05 .. 8.41665e-05
        k : 0.00023221 .. 0.00023221

    Block 45 cell size :
        i : 0.000343506 .. 0.000343506
        j : 8.39206e-05 .. 8.39206e-05
        k : 0.00023226 .. 0.00023226

    Block 46 cell size :
        i : 0.00031712 .. 0.00031712
        j : 8.32989e-05 .. 8.32989e-05
        k : 0.000232375 .. 0.000232375

    Block 47 cell size :
        i : 0.000317121 .. 0.000317121
        j : 8.27314e-05 .. 8.27314e-05
        k : 0.00023249 .. 0.00023249

    Block 48 cell size :
        i : 0.000253696 .. 0.000253696
        j : 0.000132 .. 0.000132
        k : 0.0002325 .. 0.0002325

    Block 49 cell size :
        i : 0.000274804 .. 0.000274804
        j : 0.000132373 .. 0.000132373
        k : 0.00023246 .. 0.00023246

    Block 50 cell size :
        i : 0.000253696 .. 0.000253696
        j : 0.000133361 .. 0.000133361
        k : 0.000232365 .. 0.000232365

    Block 51 cell size :
        i : 0.000274806 .. 0.000274806
        j : 0.000134273 .. 0.000134273
        k : 0.000232285 .. 0.000232285

    Block 52 cell size :
        i : 0.000253695 .. 0.000253695
        j : 0.000134665 .. 0.000134665
        k : 0.00023224 .. 0.00023224

    Block 53 cell size :
        i : 0.000274804 .. 0.000274804
        j : 0.000134273 .. 0.000134273
        k : 0.000232285 .. 0.000232285

    Block 54 cell size :
        i : 0.000253696 .. 0.000253696
        j : 0.000133276 .. 0.000133276
        k : 0.00023238 .. 0.00023238

    Block 55 cell size :
        i : 0.000253696 .. 0.000253696
        j : 0.000132373 .. 0.000132373
        k : 0.00023246 .. 0.00023246

    Block 56 cell size :
        i : 0.000148664 .. 0.000148664
        j : 0.000198 .. 0.000198
        k : 0.000232445 .. 0.000232445

    Block 57 cell size :
        i : 0.000148665 .. 0.000148665
        j : 0.000200042 .. 0.000200042
        k : 0.00023237 .. 0.00023237

    Block 58 cell size :
        i : 0.000148665 .. 0.000148665
        j : 0.000202 .. 0.000202
        k : 0.000232295 .. 0.000232295

    Block 59 cell size :
        i : 0.000148665 .. 0.000148665
        j : 0.000199915 .. 0.000199915
        k : 0.000232375 .. 0.000232375

    Block 60 cell size :
        i : 0.000317121 .. 0.000317121
        j : 8.25e-05 .. 8.25e-05
        k : 0.000232595 .. 0.000232595

    Block 61 cell size :
        i : 0.000343505 .. 0.000343505
        j : 8.27314e-05 .. 8.27314e-05
        k : 0.00023253 .. 0.00023253

    Block 62 cell size :
        i : 0.000317121 .. 0.000317121
        j : 8.33512e-05 .. 8.33512e-05
        k : 0.000232365 .. 0.000232365

    Block 63 cell size :
        i : 0.000343507 .. 0.000343507
        j : 8.39206e-05 .. 8.39206e-05
        k : 0.00023221 .. 0.00023221

    Block 64 cell size :
        i : 0.00031712 .. 0.00031712
        j : 8.41665e-05 .. 8.41665e-05
        k : 0.000232145 .. 0.000232145

    Block 65 cell size :
        i : 0.000343506 .. 0.000343506
        j : 8.39206e-05 .. 8.39206e-05
        k : 0.00023221 .. 0.00023221

    Block 66 cell size :
        i : 0.00031712 .. 0.00031712
        j : 8.32989e-05 .. 8.32989e-05
        k : 0.00023238 .. 0.00023238

    Block 67 cell size :
        i : 0.000317121 .. 0.000317121
        j : 8.27314e-05 .. 8.27314e-05
        k : 0.00023253 .. 0.00023253

    Block 68 cell size :
        i : 0.000253696 .. 0.000253696
        j : 0.000132 .. 0.000132
        k : 0.00023255 .. 0.00023255

    Block 69 cell size :
        i : 0.000274804 .. 0.000274804
        j : 0.000132373 .. 0.000132373
        k : 0.000232505 .. 0.000232505

    Block 70 cell size :
        i : 0.000253696 .. 0.000253696
        j : 0.000133361 .. 0.000133361
        k : 0.00023237 .. 0.00023237

    Block 71 cell size :
        i : 0.000274806 .. 0.000274806
        j : 0.000134273 .. 0.000134273
        k : 0.00023224 .. 0.00023224

    Block 72 cell size :
        i : 0.000253695 .. 0.000253695
        j : 0.000134665 .. 0.000134665
        k : 0.00023219 .. 0.00023219

    Block 73 cell size :
        i : 0.000274804 .. 0.000274804
        j : 0.000134273 .. 0.000134273
        k : 0.00023224 .. 0.00023224

    Block 74 cell size :
        i : 0.000253696 .. 0.000253696
        j : 0.000133276 .. 0.000133276
        k : 0.000232375 .. 0.000232375

    Block 75 cell size :
        i : 0.000253696 .. 0.000253696
        j : 0.000132373 .. 0.000132373
        k : 0.000232505 .. 0.000232505

    Block 76 cell size :
        i : 0.000148664 .. 0.000148664
        j : 0.000198 .. 0.000198
        k : 0.00023248 .. 0.00023248

    Block 77 cell size :
        i : 0.000148665 .. 0.000148665
        j : 0.000200042 .. 0.000200042
        k : 0.00023237 .. 0.00023237

    Block 78 cell size :
        i : 0.000148665 .. 0.000148665
        j : 0.000202 .. 0.000202
        k : 0.000232265 .. 0.000232265

    Block 79 cell size :
        i : 0.000148665 .. 0.000148665
        j : 0.000199915 .. 0.000199915
        k : 0.00023238 .. 0.00023238

    Block 80 cell size :
        i : 0.000317121 .. 0.000317121
        j : 8.25e-05 .. 8.25e-05
        k : 0.000232695 .. 0.000232695

    Block 81 cell size :
        i : 0.000343505 .. 0.000343505
        j : 8.27315e-05 .. 8.27315e-05
        k : 0.000232605 .. 0.000232605

    Block 82 cell size :
        i : 0.000317121 .. 0.000317121
        j : 8.33512e-05 .. 8.33512e-05
        k : 0.000232365 .. 0.000232365

    Block 83 cell size :
        i : 0.000343507 .. 0.000343507
        j : 8.39207e-05 .. 8.39207e-05
        k : 0.00023214 .. 0.00023214

    Block 84 cell size :
        i : 0.00031712 .. 0.00031712
        j : 8.41666e-05 .. 8.41666e-05
        k : 0.00023204 .. 0.00023204

    Block 85 cell size :
        i : 0.000343506 .. 0.000343506
        j : 8.39207e-05 .. 8.39207e-05
        k : 0.00023214 .. 0.00023214

    Block 86 cell size :
        i : 0.00031712 .. 0.00031712
        j : 8.32989e-05 .. 8.32989e-05
        k : 0.000232385 .. 0.000232385

    Block 87 cell size :
        i : 0.000317121 .. 0.000317121
        j : 8.27315e-05 .. 8.27315e-05
        k : 0.000232605 .. 0.000232605

    Block 88 cell size :
        i : 0.000253696 .. 0.000253696
        j : 0.000132 .. 0.000132
        k : 0.00023263 .. 0.00023263

    Block 89 cell size :
        i : 0.000274804 .. 0.000274804
        j : 0.000132373 .. 0.000132373
        k : 0.000232555 .. 0.000232555

    Block 90 cell size :
        i : 0.000253696 .. 0.000253696
        j : 0.000133361 .. 0.000133361
        k : 0.000232365 .. 0.000232365

    Block 91 cell size :
        i : 0.000274806 .. 0.000274806
        j : 0.000134273 .. 0.000134273
        k : 0.000232185 .. 0.000232185

    Block 92 cell size :
        i : 0.000253695 .. 0.000253695
        j : 0.000134665 .. 0.000134665
        k : 0.00023211 .. 0.00023211

    Block 93 cell size :
        i : 0.000274804 .. 0.000274804
        j : 0.000134273 .. 0.000134273
        k : 0.000232185 .. 0.000232185

    Block 94 cell size :
        i : 0.000253696 .. 0.000253696
        j : 0.000133276 .. 0.000133276
        k : 0.000232385 .. 0.000232385

    Block 95 cell size :
        i : 0.000253696 .. 0.000253696
        j : 0.000132373 .. 0.000132373
        k : 0.000232555 .. 0.000232555

    Block 96 cell size :
        i : 0.000148664 .. 0.000148664
        j : 0.000198 .. 0.000198
        k : 0.00023253 .. 0.00023253

    Block 97 cell size :
        i : 0.000148665 .. 0.000148665
        j : 0.000200042 .. 0.000200042
        k : 0.000232365 .. 0.000232365

    Block 98 cell size :
        i : 0.000148665 .. 0.000148665
        j : 0.000202 .. 0.000202
        k : 0.000232215 .. 0.000232215

    Block 99 cell size :
        i : 0.000148665 .. 0.000148665
        j : 0.000199915 .. 0.000199915
        k : 0.000232375 .. 0.000232375

    Block 100 cell size :
        i : 0.000317121 .. 0.000317121
        j : 8.25001e-05 .. 8.25001e-05
        k : 0.00023283 .. 0.00023283

    Block 101 cell size :
        i : 0.000343505 .. 0.000343505
        j : 8.27315e-05 .. 8.27315e-05
        k : 0.000232705 .. 0.000232705

    Block 102 cell size :
        i : 0.000317121 .. 0.000317121
        j : 8.33512e-05 .. 8.33512e-05
        k : 0.00023236 .. 0.00023236

    Block 103 cell size :
        i : 0.000343507 .. 0.000343507
        j : 8.39207e-05 .. 8.39207e-05
        k : 0.00023204 .. 0.00023204

    Block 104 cell size :
        i : 0.00031712 .. 0.00031712
        j : 8.41666e-05 .. 8.41666e-05
        k : 0.000231905 .. 0.000231905

    Block 105 cell size :
        i : 0.000343506 .. 0.000343506
        j : 8.39207e-05 .. 8.39207e-05
        k : 0.00023204 .. 0.00023204

    Block 106 cell size :
        i : 0.00031712 .. 0.00031712
        j : 8.32989e-05 .. 8.32989e-05
        k : 0.00023239 .. 0.00023239

    Block 107 cell size :
        i : 0.000317121 .. 0.000317121
        j : 8.27315e-05 .. 8.27315e-05
        k : 0.000232705 .. 0.000232705

    Block 108 cell size :
        i : 0.000253695 .. 0.000253695
        j : 0.000132 .. 0.000132
        k : 0.00023274 .. 0.00023274

    Block 109 cell size :
        i : 0.000274805 .. 0.000274805
        j : 0.000132373 .. 0.000132373
        k : 0.00023264 .. 0.00023264

    Block 110 cell size :
        i : 0.000253696 .. 0.000253696
        j : 0.000133361 .. 0.000133361
        k : 0.00023236 .. 0.00023236

    Block 111 cell size :
        i : 0.000274806 .. 0.000274806
        j : 0.000134273 .. 0.000134273
        k : 0.00023211 .. 0.00023211

    Block 112 cell size :
        i : 0.000253695 .. 0.000253695
        j : 0.000134667 .. 0.000134667
        k : 0.000231995 .. 0.000231995

    Block 113 cell size :
        i : 0.000274804 .. 0.000274804
        j : 0.000134273 .. 0.000134273
        k : 0.00023211 .. 0.00023211

    Block 114 cell size :
        i : 0.000253696 .. 0.000253696
        j : 0.000133276 .. 0.000133276
        k : 0.000232385 .. 0.000232385

    Block 115 cell size :
        i : 0.000253695 .. 0.000253695
        j : 0.000132373 .. 0.000132373
        k : 0.00023264 .. 0.00023264

    Block 116 cell size :
        i : 0.000148664 .. 0.000148664
        j : 0.000198 .. 0.000198
        k : 0.00023259 .. 0.00023259

    Block 117 cell size :
        i : 0.000148665 .. 0.000148665
        j : 0.000200042 .. 0.000200042
        k : 0.00023237 .. 0.00023237

    Block 118 cell size :
        i : 0.000148665 .. 0.000148665
        j : 0.000201998 .. 0.000201998
        k : 0.000232145 .. 0.000232145

    Block 119 cell size :
        i : 0.000148665 .. 0.000148665
        j : 0.000199915 .. 0.000199915
        k : 0.00023238 .. 0.00023238

    Block 120 cell size :
        i : 0.000317121 .. 0.000317121
        j : 8.25001e-05 .. 8.25001e-05
        k : 0.000233035 .. 0.000233035

    Block 121 cell size :
        i : 0.000343505 .. 0.000343505
        j : 8.27315e-05 .. 8.27315e-05
        k : 0.00023285 .. 0.00023285

    Block 122 cell size :
        i : 0.00031712 .. 0.00031712
        j : 8.33512e-05 .. 8.33512e-05
        k : 0.00023235 .. 0.00023235

    Block 123 cell size :
        i : 0.000343508 .. 0.000343508
        j : 8.39195e-05 .. 8.39195e-05
        k : 0.000231895 .. 0.000231895

    Block 124 cell size :
        i : 0.000317121 .. 0.000317121
        j : 8.41666e-05 .. 8.41666e-05
        k : 0.000231695 .. 0.000231695

    Block 125 cell size :
        i : 0.000343505 .. 0.000343505
        j : 8.39195e-05 .. 8.39195e-05
        k : 0.000231895 .. 0.000231895

    Block 126 cell size :
        i : 0.00031712 .. 0.00031712
        j : 8.32989e-05 .. 8.32989e-05
        k : 0.0002324 .. 0.0002324

    Block 127 cell size :
        i : 0.000317121 .. 0.000317121
        j : 8.27315e-05 .. 8.27315e-05
        k : 0.00023285 .. 0.00023285

    Block 128 cell size :
        i : 0.000253695 .. 0.000253695
        j : 0.000132 .. 0.000132
        k : 0.0002329 .. 0.0002329

    Block 129 cell size :
        i : 0.000274805 .. 0.000274805
        j : 0.000132373 .. 0.000132373
        k : 0.000232755 .. 0.000232755

    Block 130 cell size :
        i : 0.000253696 .. 0.000253696
        j : 0.000133361 .. 0.000133361
        k : 0.00023236 .. 0.00023236

    Block 131 cell size :
        i : 0.000274805 .. 0.000274805
        j : 0.000134273 .. 0.000134273
        k : 0.00023199 .. 0.00023199

    Block 132 cell size :
        i : 0.000253695 .. 0.000253695
        j : 0.000134667 .. 0.000134667
        k : 0.00023183 .. 0.00023183

    Block 133 cell size :
        i : 0.000274805 .. 0.000274805
        j : 0.000134273 .. 0.000134273
        k : 0.00023199 .. 0.00023199

    Block 134 cell size :
        i : 0.000253696 .. 0.000253696
        j : 0.000133276 .. 0.000133276
        k : 0.00023239 .. 0.00023239

    Block 135 cell size :
        i : 0.000253695 .. 0.000253695
        j : 0.000132373 .. 0.000132373
        k : 0.000232755 .. 0.000232755

    Block 136 cell size :
        i : 0.000148664 .. 0.000148664
        j : 0.000198 .. 0.000198
        k : 0.00023269 .. 0.00023269

    Block 137 cell size :
        i : 0.000148665 .. 0.000148665
        j : 0.000200042 .. 0.000200042
        k : 0.00023236 .. 0.00023236

    Block 138 cell size :
        i : 0.000148665 .. 0.000148665
        j : 0.000201998 .. 0.000201998
        k : 0.000232045 .. 0.000232045

    Block 139 cell size :
        i : 0.000148665 .. 0.000148665
        j : 0.000199915 .. 0.000199915
        k : 0.000232385 .. 0.000232385

    Block 140 cell size :
        i : 0.00031712 .. 0.00031712
        j : 8.25003e-05 .. 8.25003e-05
        k : 0.00023332 .. 0.00023332

    Block 141 cell size :
        i : 0.000343505 .. 0.000343505
        j : 8.27328e-05 .. 8.27328e-05
        k : 0.000233055 .. 0.000233055

    Block 142 cell size :
        i : 0.00031712 .. 0.00031712
        j : 8.33512e-05 .. 8.33512e-05
        k : 0.00023235 .. 0.00023235

    Block 143 cell size :
        i : 0.000343507 .. 0.000343507
        j : 8.39196e-05 .. 8.39196e-05
        k : 0.00023169 .. 0.00023169

    Block 144 cell size :
        i : 0.00031712 .. 0.00031712
        j : 8.41651e-05 .. 8.41651e-05
        k : 0.000231405 .. 0.000231405

    Block 145 cell size :
        i : 0.000343505 .. 0.000343505
        j : 8.39196e-05 .. 8.39196e-05
        k : 0.00023169 .. 0.00023169

    Block 146 cell size :
        i : 0.00031712 .. 0.00031712
        j : 8.32989e-05 .. 8.32989e-05
        k : 0.000232405 .. 0.000232405

    Block 147 cell size :
        i : 0.00031712 .. 0.00031712
        j : 8.27328e-05 .. 8.27328e-05
        k : 0.000233055 .. 0.000233055

    Block 148 cell size :
        i : 0.000253696 .. 0.000253696
        j : 0.000131999 .. 0.000131999
        k : 0.00023313 .. 0.00023313

    Block 149 cell size :
        i : 0.000274804 .. 0.000274804
        j : 0.000132372 .. 0.000132372
        k : 0.000232915 .. 0.000232915

    Block 150 cell size :
        i : 0.000253697 .. 0.000253697
        j : 0.000133361 .. 0.000133361
        k : 0.00023235 .. 0.00023235

    Block 151 cell size :
        i : 0.000274805 .. 0.000274805
        j : 0.000134273 .. 0.000134273
        k : 0.000231825 .. 0.000231825

    Block 152 cell size :
        i : 0.000253695 .. 0.000253695
        j : 0.000134667 .. 0.000134667
        k : 0.0002316 .. 0.0002316

    Block 153 cell size :
        i : 0.000274805 .. 0.000274805
        j : 0.000134273 .. 0.000134273
        k : 0.000231825 .. 0.000231825

    Block 154 cell size :
        i : 0.000253695 .. 0.000253695
        j : 0.000133276 .. 0.000133276
        k : 0.0002324 .. 0.0002324

    Block 155 cell size :
        i : 0.000253696 .. 0.000253696
        j : 0.000132372 .. 0.000132372
        k : 0.000232915 .. 0.000232915

    Block 156 cell size :
        i : 0.000148664 .. 0.000148664
        j : 0.000198001 .. 0.000198001
        k : 0.000232825 .. 0.000232825

    Block 157 cell size :
        i : 0.000148666 .. 0.000148666
        j : 0.000200042 .. 0.000200042
        k : 0.00023236 .. 0.00023236

    Block 158 cell size :
        i : 0.000148665 .. 0.000148665
        j : 0.000201999 .. 0.000201999
        k : 0.00023191 .. 0.00023191

    Block 159 cell size :
        i : 0.000148665 .. 0.000148665
        j : 0.000199915 .. 0.000199915
        k : 0.00023239 .. 0.00023239

    Block 160 cell size :
        i : 0.00031712 .. 0.00031712
        j : 8.24989e-05 .. 8.24989e-05
        k : 0.000233725 .. 0.000233725

    Block 161 cell size :
        i : 0.000343505 .. 0.000343505
        j : 8.27317e-05 .. 8.27317e-05
        k : 0.00023335 .. 0.00023335

    Block 162 cell size :
        i : 0.000317121 .. 0.000317121
        j : 8.33512e-05 .. 8.33512e-05
        k : 0.000232335 .. 0.000232335

    Block 163 cell size :
        i : 0.000343507 .. 0.000343507
        j : 8.39209e-05 .. 8.39209e-05
        k : 0.0002314 .. 0.0002314

    Block 164 cell size :
        i : 0.00031712 .. 0.00031712
        j : 8.41654e-05 .. 8.41654e-05
        k : 0.00023099 .. 0.00023099

    Block 165 cell size :
        i : 0.000343506 .. 0.000343506
        j : 8.39209e-05 .. 8.39209e-05
        k : 0.0002314 .. 0.0002314

    Block 166 cell size :
        i : 0.00031712 .. 0.00031712
        j : 8.32989e-05 .. 8.32989e-05
        k : 0.000232425 .. 0.000232425

    Block 167 cell size :
        i : 0.00031712 .. 0.00031712
        j : 8.27317e-05 .. 8.27317e-05
        k : 0.00023335 .. 0.00023335

    Block 168 cell size :
        i : 0.000253695 .. 0.000253695
        j : 0.000132001 .. 0.000132001
        k : 0.00023346 .. 0.00023346

    Block 169 cell size :
        i : 0.000274804 .. 0.000274804
        j : 0.000132372 .. 0.000132372
        k : 0.000233155 .. 0.000233155

    Block 170 cell size :
        i : 0.000253696 .. 0.000253696
        j : 0.000133361 .. 0.000133361
        k : 0.000232345 .. 0.000232345

    Block 171 cell size :
        i : 0.000274805 .. 0.000274805
        j : 0.000134273 .. 0.000134273
        k : 0.000231595 .. 0.000231595

    Block 172 cell size :
        i : 0.000253695 .. 0.000253695
        j : 0.000134666 .. 0.000134666
        k : 0.000231265 .. 0.000231265

    Block 173 cell size :
        i : 0.000274804 .. 0.000274804
        j : 0.000134273 .. 0.000134273
        k : 0.000231595 .. 0.000231595

    Block 174 cell size :
        i : 0.000253696 .. 0.000253696
        j : 0.000133276 .. 0.000133276
        k : 0.000232415 .. 0.000232415

    Block 175 cell size :
        i : 0.000253695 .. 0.000253695
        j : 0.000132372 .. 0.000132372
        k : 0.000233155 .. 0.000233155

    Block 176 cell size :
        i : 0.000148664 .. 0.000148664
        j : 0.000198 .. 0.000198
        k : 0.000233025 .. 0.000233025

    Block 177 cell size :
        i : 0.000148664 .. 0.000148664
        j : 0.000200042 .. 0.000200042
        k : 0.000232355 .. 0.000232355

    Block 178 cell size :
        i : 0.000148665 .. 0.000148665
        j : 0.000201999 .. 0.000201999
        k : 0.00023171 .. 0.00023171

    Block 179 cell size :
        i : 0.000148666 .. 0.000148666
        j : 0.000199915 .. 0.000199915
        k : 0.000232395 .. 0.000232395

    Block 180 cell size :
        i : 0.00031712 .. 0.00031712
        j : 8.25011e-05 .. 8.25011e-05
        k : 0.000234315 .. 0.000234315

    Block 181 cell size :
        i : 0.000343505 .. 0.000343505
        j : 8.2732e-05 .. 8.2732e-05
        k : 0.00023377 .. 0.00023377

    Block 182 cell size :
        i : 0.00031712 .. 0.00031712
        j : 8.33512e-05 .. 8.33512e-05
        k : 0.00023232 .. 0.00023232

    Block 183 cell size :
        i : 0.000343507 .. 0.000343507
        j : 8.392e-05 .. 8.392e-05
        k : 0.000230975 .. 0.000230975

    Block 184 cell size :
        i : 0.000317121 .. 0.000317121
        j : 8.4166e-05 .. 8.4166e-05
        k : 0.00023039 .. 0.00023039

    Block 185 cell size :
        i : 0.000343505 .. 0.000343505
        j : 8.392e-05 .. 8.392e-05
        k : 0.000230975 .. 0.000230975

    Block 186 cell size :
        i : 0.00031712 .. 0.00031712
        j : 8.32989e-05 .. 8.32989e-05
        k : 0.000232445 .. 0.000232445

    Block 187 cell size :
        i : 0.00031712 .. 0.00031712
        j : 8.2732e-05 .. 8.2732e-05
        k : 0.00023377 .. 0.00023377

    Block 188 cell size :
        i : 0.000253696 .. 0.000253696
        j : 0.000132 .. 0.000132
        k : 0.000233925 .. 0.000233925

    Block 189 cell size :
        i : 0.000274804 .. 0.000274804
        j : 0.000132372 .. 0.000132372
        k : 0.00023349 .. 0.00023349

    Block 190 cell size :
        i : 0.000253696 .. 0.000253696
        j : 0.000133361 .. 0.000133361
        k : 0.00023233 .. 0.00023233

    Block 191 cell size :
        i : 0.000274806 .. 0.000274806
        j : 0.000134272 .. 0.000134272
        k : 0.000231255 .. 0.000231255

    Block 192 cell size :
        i : 0.000253695 .. 0.000253695
        j : 0.000134667 .. 0.000134667
        k : 0.00023079 .. 0.00023079

    Block 193 cell size :
        i : 0.000274804 .. 0.000274804
        j : 0.000134272 .. 0.000134272
        k : 0.000231255 .. 0.000231255

    Block 194 cell size :
        i : 0.000253696 .. 0.000253696
        j : 0.000133276 .. 0.000133276
        k : 0.00023243 .. 0.00023243

    Block 195 cell size :
        i : 0.000253696 .. 0.000253696
        j : 0.000132372 .. 0.000132372
        k : 0.00023349 .. 0.00023349

    Block 196 cell size :
        i : 0.000148664 .. 0.000148664
        j : 0.000197999 .. 0.000197999
        k : 0.000233305 .. 0.000233305

    Block 197 cell size :
        i : 0.000148665 .. 0.000148665
        j : 0.000200042 .. 0.000200042
        k : 0.00023235 .. 0.00023235

    Block 198 cell size :
        i : 0.000148665 .. 0.000148665
        j : 0.000201999 .. 0.000201999
        k : 0.00023142 .. 0.00023142

    Block 199 cell size :
        i : 0.000148665 .. 0.000148665
        j : 0.000199915 .. 0.000199915
        k : 0.000232405 .. 0.000232405

    Block 200 cell size :
        i : 0.00031712 .. 0.00031712
        j : 8.2499e-05 .. 8.2499e-05
        k : 0.000235155 .. 0.000235155

    Block 201 cell size :
        i : 0.000343506 .. 0.000343506
        j : 8.27326e-05 .. 8.27326e-05
        k : 0.000234375 .. 0.000234375

    Block 202 cell size :
        i : 0.000317121 .. 0.000317121
        j : 8.33512e-05 .. 8.33512e-05
        k : 0.0002323 .. 0.0002323

    Block 203 cell size :
        i : 0.000343507 .. 0.000343507
        j : 8.39206e-05 .. 8.39206e-05
        k : 0.00023037 .. 0.00023037

    Block 204 cell size :
        i : 0.00031712 .. 0.00031712
        j : 8.41655e-05 .. 8.41655e-05
        k : 0.00022954 .. 0.00022954

    Block 205 cell size :
        i : 0.000343506 .. 0.000343506
        j : 8.39206e-05 .. 8.39206e-05
        k : 0.00023037 .. 0.00023037

    Block 206 cell size :
        i : 0.00031712 .. 0.00031712
        j : 8.32989e-05 .. 8.32989e-05
        k : 0.000232475 .. 0.000232475

    Block 207 cell size :
        i : 0.00031712 .. 0.00031712
        j : 8.27326e-05 .. 8.27326e-05
        k : 0.000234375 .. 0.000234375

    Block 208 cell size :
        i : 0.000253695 .. 0.000253695
        j : 0.000132 .. 0.000132
        k : 0.000234595 .. 0.000234595

    Block 209 cell size :
        i : 0.000274805 .. 0.000274805
        j : 0.000132372 .. 0.000132372
        k : 0.00023398 .. 0.00023398

    Block 210 cell size :
        i : 0.000253696 .. 0.000253696
        j : 0.000133361 .. 0.000133361
        k : 0.000232315 .. 0.000232315

    Block 211 cell size :
        i : 0.000274806 .. 0.000274806
        j : 0.000134272 .. 0.000134272
        k : 0.00023077 .. 0.00023077

    Block 212 cell size :
        i : 0.000253696 .. 0.000253696
        j : 0.000134667 .. 0.000134667
        k : 0.0002301 .. 0.0002301

    Block 213 cell size :
        i : 0.000274805 .. 0.000274805
        j : 0.000134272 .. 0.000134272
        k : 0.00023077 .. 0.00023077

    Block 214 cell size :
        i : 0.000253696 .. 0.000253696
        j : 0.000133276 .. 0.000133276
        k : 0.000232455 .. 0.000232455

    Block 215 cell size :
        i : 0.000253695 .. 0.000253695
        j : 0.000132372 .. 0.000132372
        k : 0.00023398 .. 0.00023398

    Block 216 cell size :
        i : 0.000148664 .. 0.000148664
        j : 0.000198 .. 0.000198
        k : 0.000233705 .. 0.000233705

    Block 217 cell size :
        i : 0.000148666 .. 0.000148666
        j : 0.000200042 .. 0.000200042
        k : 0.000232335 .. 0.000232335

    Block 218 cell size :
        i : 0.000148665 .. 0.000148665
        j : 0.000201999 .. 0.000201999
        k : 0.00023101 .. 0.00023101

    Block 219 cell size :
        i : 0.000148665 .. 0.000148665
        j : 0.000199915 .. 0.000199915
        k : 0.000232425 .. 0.000232425

    Block 220 cell size :
        i : 0.00031712 .. 0.00031712
        j : 8.24997e-05 .. 8.24997e-05
        k : 0.000561675 .. 0.000561675

    Block 221 cell size :
        i : 0.000343505 .. 0.000343505
        j : 8.27315e-05 .. 8.27315e-05
        k : 0.000560565 .. 0.000560565

    Block 222 cell size :
        i : 0.00031712 .. 0.00031712
        j : 8.33512e-05 .. 8.33512e-05
        k : 0.00055759 .. 0.00055759

    Block 223 cell size :
        i : 0.000343507 .. 0.000343507
        j : 8.39207e-05 .. 8.39207e-05
        k : 0.00055483 .. 0.00055483

    Block 224 cell size :
        i : 0.00031712 .. 0.00031712
        j : 8.41663e-05 .. 8.41663e-05
        k : 0.00055363 .. 0.00055363

    Block 225 cell size :
        i : 0.000343507 .. 0.000343507
        j : 8.39207e-05 .. 8.39207e-05
        k : 0.00055483 .. 0.00055483

    Block 226 cell size :
        i : 0.000317119 .. 0.000317119
        j : 8.32989e-05 .. 8.32989e-05
        k : 0.000557845 .. 0.000557845

    Block 227 cell size :
        i : 0.00031712 .. 0.00031712
        j : 8.27315e-05 .. 8.27315e-05
        k : 0.000560565 .. 0.000560565

    Block 228 cell size :
        i : 0.000253695 .. 0.000253695
        j : 0.000132001 .. 0.000132001
        k : 0.00056088 .. 0.00056088

    Block 229 cell size :
        i : 0.000274805 .. 0.000274805
        j : 0.000132373 .. 0.000132373
        k : 0.00055999 .. 0.00055999

    Block 230 cell size :
        i : 0.000253696 .. 0.000253696
        j : 0.000133361 .. 0.000133361
        k : 0.00055761 .. 0.00055761

    Block 231 cell size :
        i : 0.000274806 .. 0.000274806
        j : 0.000134273 .. 0.000134273
        k : 0.000555405 .. 0.000555405

    Block 232 cell size :
        i : 0.000253695 .. 0.000253695
        j : 0.000134666 .. 0.000134666
        k : 0.000554445 .. 0.000554445

    Block 233 cell size :
        i : 0.000274805 .. 0.000274805
        j : 0.000134273 .. 0.000134273
        k : 0.000555405 .. 0.000555405

    Block 234 cell size :
        i : 0.000253695 .. 0.000253695
        j : 0.000133276 .. 0.000133276
        k : 0.000557815 .. 0.000557815

    Block 235 cell size :
        i : 0.000253695 .. 0.000253695
        j : 0.000132373 .. 0.000132373
        k : 0.00055999 .. 0.00055999

    Block 236 cell size :
        i : 0.000148664 .. 0.000148664
        j : 0.000198 .. 0.000198
        k : 0.000559605 .. 0.000559605

    Block 237 cell size :
        i : 0.000148665 .. 0.000148665
        j : 0.000200042 .. 0.000200042
        k : 0.000557645 .. 0.000557645

    Block 238 cell size :
        i : 0.000148665 .. 0.000148665
        j : 0.000201999 .. 0.000201999
        k : 0.000555745 .. 0.000555745

    Block 239 cell size :
        i : 0.000148664 .. 0.000148664
        j : 0.000199915 .. 0.000199915
        k : 0.000557765 .. 0.000557765

    Block 240 cell size :
        i : 0.00031712 .. 0.00031712
        j : 8.24996e-05 .. 8.24996e-05
        k : 0.000563395 .. 0.000563395

    Block 241 cell size :
        i : 0.000343507 .. 0.000343507
        j : 8.27328e-05 .. 8.27328e-05
        k : 0.000561805 .. 0.000561805

    Block 242 cell size :
        i : 0.000317119 .. 0.000317119
        j : 8.33512e-05 .. 8.33512e-05
        k : 0.00055754 .. 0.00055754

    Block 243 cell size :
        i : 0.000343507 .. 0.000343507
        j : 8.39208e-05 .. 8.39208e-05
        k : 0.000553595 .. 0.000553595

    Block 244 cell size :
        i : 0.00031712 .. 0.00031712
        j : 8.41663e-05 .. 8.41663e-05
        k : 0.000551875 .. 0.000551875

    Block 245 cell size :
        i : 0.000343506 .. 0.000343506
        j : 8.39208e-05 .. 8.39208e-05
        k : 0.000553595 .. 0.000553595

    Block 246 cell size :
        i : 0.00031712 .. 0.00031712
        j : 8.32988e-05 .. 8.32988e-05
        k : 0.00055791 .. 0.00055791

    Block 247 cell size :
        i : 0.00031712 .. 0.00031712
        j : 8.27328e-05 .. 8.27328e-05
        k : 0.000561805 .. 0.000561805

    Block 248 cell size :
        i : 0.000253696 .. 0.000253696
        j : 0.000132 .. 0.000132
        k : 0.000562255 .. 0.000562255

    Block 249 cell size :
        i : 0.000274805 .. 0.000274805
        j : 0.000132372 .. 0.000132372
        k : 0.00056098 .. 0.00056098

    Block 250 cell size :
        i : 0.000253695 .. 0.000253695
        j : 0.000133361 .. 0.000133361
        k : 0.00055757 .. 0.00055757

    Block 251 cell size :
        i : 0.000274806 .. 0.000274806
        j : 0.000134272 .. 0.000134272
        k : 0.00055441 .. 0.00055441

    Block 252 cell size :
        i : 0.000253696 .. 0.000253696
        j : 0.000134667 .. 0.000134667
        k : 0.00055304 .. 0.00055304

    Block 253 cell size :
        i : 0.000274805 .. 0.000274805
        j : 0.000134272 .. 0.000134272
        k : 0.00055441 .. 0.00055441

    Block 254 cell size :
        i : 0.000253694 .. 0.000253694
        j : 0.000133276 .. 0.000133276
        k : 0.000557865 .. 0.000557865

    Block 255 cell size :
        i : 0.000253696 .. 0.000253696
        j : 0.000132372 .. 0.000132372
        k : 0.00056098 .. 0.00056098

    Block 256 cell size :
        i : 0.000148664 .. 0.000148664
        j : 0.000198 .. 0.000198
        k : 0.00056043 .. 0.00056043

    Block 257 cell size :
        i : 0.000148665 .. 0.000148665
        j : 0.000200042 .. 0.000200042
        k : 0.00055762 .. 0.00055762

    Block 258 cell size :
        i : 0.000148665 .. 0.000148665
        j : 0.000201998 .. 0.000201998
        k : 0.000554895 .. 0.000554895

    Block 259 cell size :
        i : 0.000148666 .. 0.000148666
        j : 0.000199915 .. 0.000199915
        k : 0.000557795 .. 0.000557795

    Block 260 cell size :
        i : 0.00031712 .. 0.00031712
        j : 8.24997e-05 .. 8.24997e-05
        k : 0.000565865 .. 0.000565865

    Block 261 cell size :
        i : 0.000343506 .. 0.000343506
        j : 8.27321e-05 .. 8.27321e-05
        k : 0.000563585 .. 0.000563585

    Block 262 cell size :
        i : 0.000317119 .. 0.000317119
        j : 8.33512e-05 .. 8.33512e-05
        k : 0.00055748 .. 0.00055748

    Block 263 cell size :
        i : 0.000343507 .. 0.000343507
        j : 8.39201e-05 .. 8.39201e-05
        k : 0.00055182 .. 0.00055182

    Block 264 cell size :
        i : 0.000317121 .. 0.000317121
        j : 8.41666e-05 .. 8.41666e-05
        k : 0.00054936 .. 0.00054936

    Block 265 cell size :
        i : 0.000343506 .. 0.000343506
        j : 8.39201e-05 .. 8.39201e-05
        k : 0.00055182 .. 0.00055182

    Block 266 cell size :
        i : 0.00031712 .. 0.00031712
        j : 8.32989e-05 .. 8.32989e-05
        k : 0.000558 .. 0.000558

    Block 267 cell size :
        i : 0.00031712 .. 0.00031712
        j : 8.27321e-05 .. 8.27321e-05
        k : 0.000563585 .. 0.000563585

    Block 268 cell size :
        i : 0.000253696 .. 0.000253696
        j : 0.000132 .. 0.000132
        k : 0.00056423 .. 0.00056423

    Block 269 cell size :
        i : 0.000274805 .. 0.000274805
        j : 0.000132372 .. 0.000132372
        k : 0.000562405 .. 0.000562405

    Block 270 cell size :
        i : 0.000253696 .. 0.000253696
        j : 0.000133361 .. 0.000133361
        k : 0.000557525 .. 0.000557525

    Block 271 cell size :
        i : 0.000274805 .. 0.000274805
        j : 0.000134272 .. 0.000134272
        k : 0.000552995 .. 0.000552995

    Block 272 cell size :
        i : 0.000253695 .. 0.000253695
        j : 0.000134665 .. 0.000134665
        k : 0.000551025 .. 0.000551025

    Block 273 cell size :
        i : 0.000274806 .. 0.000274806
        j : 0.000134272 .. 0.000134272
        k : 0.000552995 .. 0.000552995

    Block 274 cell size :
        i : 0.000253695 .. 0.000253695
        j : 0.000133276 .. 0.000133276
        k : 0.00055794 .. 0.00055794

    Block 275 cell size :
        i : 0.000253696 .. 0.000253696
        j : 0.000132372 .. 0.000132372
        k : 0.000562405 .. 0.000562405

    Block 276 cell size :
        i : 0.000148664 .. 0.000148664
        j : 0.000198001 .. 0.000198001
        k : 0.000561615 .. 0.000561615

    Block 277 cell size :
        i : 0.000148666 .. 0.000148666
        j : 0.000200042 .. 0.000200042
        k : 0.00055759 .. 0.00055759

    Block 278 cell size :
        i : 0.000148665 .. 0.000148665
        j : 0.000202 .. 0.000202
        k : 0.000553695 .. 0.000553695

    Block 279 cell size :
        i : 0.000148666 .. 0.000148666
        j : 0.000199915 .. 0.000199915
        k : 0.00055784 .. 0.00055784

    Block 280 cell size :
        i : 0.00031712 .. 0.00031712
        j : 8.24988e-05 .. 8.24988e-05
        k : 0.00056939 .. 0.00056939

    Block 281 cell size :
        i : 0.000343506 .. 0.000343506
        j : 8.27321e-05 .. 8.27321e-05
        k : 0.000566125 .. 0.000566125

    Block 282 cell size :
        i : 0.00031712 .. 0.00031712
        j : 8.33512e-05 .. 8.33512e-05
        k : 0.00055739 .. 0.00055739

    Block 283 cell size :
        i : 0.000343507 .. 0.000343507
        j : 8.392e-05 .. 8.392e-05
        k : 0.000549285 .. 0.000549285

    Block 284 cell size :
        i : 0.00031712 .. 0.00031712
        j : 8.41662e-05 .. 8.41662e-05
        k : 0.00054576 .. 0.00054576

    Block 285 cell size :
        i : 0.000343506 .. 0.000343506
        j : 8.392e-05 .. 8.392e-05
        k : 0.000549285 .. 0.000549285

    Block 286 cell size :
        i : 0.000317119 .. 0.000317119
        j : 8.32989e-05 .. 8.32989e-05
        k : 0.00055814 .. 0.00055814

    Block 287 cell size :
        i : 0.00031712 .. 0.00031712
        j : 8.27321e-05 .. 8.27321e-05
        k : 0.000566125 .. 0.000566125

    Block 288 cell size :
        i : 0.000253695 .. 0.000253695
        j : 0.000132 .. 0.000132
        k : 0.00056705 .. 0.00056705

    Block 289 cell size :
        i : 0.000274805 .. 0.000274805
        j : 0.000132373 .. 0.000132373
        k : 0.00056444 .. 0.00056444

    Block 290 cell size :
        i : 0.000253695 .. 0.000253695
        j : 0.000133361 .. 0.000133361
        k : 0.000557445 .. 0.000557445

    Block 291 cell size :
        i : 0.000274806 .. 0.000274806
        j : 0.000134273 .. 0.000134273
        k : 0.000550965 .. 0.000550965

    Block 292 cell size :
        i : 0.000253695 .. 0.000253695
        j : 0.000134666 .. 0.000134666
        k : 0.00054815 .. 0.00054815

    Block 293 cell size :
        i : 0.000274805 .. 0.000274805
        j : 0.000134273 .. 0.000134273
        k : 0.000550965 .. 0.000550965

    Block 294 cell size :
        i : 0.000253695 .. 0.000253695
        j : 0.000133276 .. 0.000133276
        k : 0.00055805 .. 0.00055805

    Block 295 cell size :
        i : 0.000253695 .. 0.000253695
        j : 0.000132373 .. 0.000132373
        k : 0.00056444 .. 0.00056444

    Block 296 cell size :
        i : 0.000148664 .. 0.000148664
        j : 0.000198001 .. 0.000198001
        k : 0.00056331 .. 0.00056331

    Block 297 cell size :
        i : 0.000148666 .. 0.000148666
        j : 0.000200042 .. 0.000200042
        k : 0.000557545 .. 0.000557545

    Block 298 cell size :
        i : 0.000148665 .. 0.000148665
        j : 0.000201999 .. 0.000201999
        k : 0.000551965 .. 0.000551965

    Block 299 cell size :
        i : 0.000148665 .. 0.000148665
        j : 0.000199915 .. 0.000199915
        k : 0.000557905 .. 0.000557905

    Block 300 cell size :
        i : 0.00031712 .. 0.00031712
        j : 8.24998e-05 .. 8.24998e-05
        k : 0.000574445 .. 0.000574445

    Block 301 cell size :
        i : 0.000343506 .. 0.000343506
        j : 8.27326e-05 .. 8.27326e-05
        k : 0.00056977 .. 0.00056977

    Block 302 cell size :
        i : 0.00031712 .. 0.00031712
        j : 8.33512e-05 .. 8.33512e-05
        k : 0.00055725 .. 0.00055725

    Block 303 cell size :
        i : 0.000343507 .. 0.000343507
        j : 8.39204e-05 .. 8.39204e-05
        k : 0.000545655 .. 0.000545655

    Block 304 cell size :
        i : 0.00031712 .. 0.00031712
        j : 8.41663e-05 .. 8.41663e-05
        k : 0.000540615 .. 0.000540615

    Block 305 cell size :
        i : 0.000343506 .. 0.000343506
        j : 8.39204e-05 .. 8.39204e-05
        k : 0.000545655 .. 0.000545655

    Block 306 cell size :
        i : 0.00031712 .. 0.00031712
        j : 8.32989e-05 .. 8.32989e-05
        k : 0.000558325 .. 0.000558325

    Block 307 cell size :
        i : 0.00031712 .. 0.00031712
        j : 8.27326e-05 .. 8.27326e-05
        k : 0.00056977 .. 0.00056977

    Block 308 cell size :
        i : 0.000253696 .. 0.000253696
        j : 0.000132001 .. 0.000132001
        k : 0.000571095 .. 0.000571095

    Block 309 cell size :
        i : 0.000274804 .. 0.000274804
        j : 0.000132372 .. 0.000132372
        k : 0.000567355 .. 0.000567355

    Block 310 cell size :
        i : 0.000253696 .. 0.000253696
        j : 0.000133361 .. 0.000133361
        k : 0.00055734 .. 0.00055734

    Block 311 cell size :
        i : 0.000274805 .. 0.000274805
        j : 0.000134273 .. 0.000134273
        k : 0.000548065 .. 0.000548065

    Block 312 cell size :
        i : 0.000253695 .. 0.000253695
        j : 0.000134665 .. 0.000134665
        k : 0.00054403 .. 0.00054403

    Block 313 cell size :
        i : 0.000274805 .. 0.000274805
        j : 0.000134273 .. 0.000134273
        k : 0.000548065 .. 0.000548065

    Block 314 cell size :
        i : 0.000253695 .. 0.000253695
        j : 0.000133276 .. 0.000133276
        k : 0.0005582 .. 0.0005582

    Block 315 cell size :
        i : 0.000253696 .. 0.000253696
        j : 0.000132372 .. 0.000132372
        k : 0.000567355 .. 0.000567355

    Block 316 cell size :
        i : 0.000148664 .. 0.000148664
        j : 0.000197999 .. 0.000197999
        k : 0.00056573 .. 0.00056573

    Block 317 cell size :
        i : 0.000148665 .. 0.000148665
        j : 0.000200042 .. 0.000200042
        k : 0.00055748 .. 0.00055748

    Block 318 cell size :
        i : 0.000148665 .. 0.000148665
        j : 0.000202 .. 0.000202
        k : 0.000549495 .. 0.000549495

    Block 319 cell size :
        i : 0.000148666 .. 0.000148666
        j : 0.000199915 .. 0.000199915
        k : 0.000558 .. 0.000558

    Block 320 cell size :
        i : 0.00031712 .. 0.00031712
        j : 8.24988e-05 .. 8.24988e-05
        k : 0.000581697 .. 0.000581697

    Block 321 cell size :
        i : 0.000343506 .. 0.000343506
        j : 8.27323e-05 .. 8.27323e-05
        k : 0.000575009 .. 0.000575009

    Block 322 cell size :
        i : 0.000317119 .. 0.000317119
        j : 8.33512e-05 .. 8.33512e-05
        k : 0.000557095 .. 0.000557095

    Block 323 cell size :
        i : 0.000343506 .. 0.000343506
        j : 8.392e-05 .. 8.392e-05
        k : 0.000540482 .. 0.000540482

    Block 324 cell size :
        i : 0.00031712 .. 0.00031712
        j : 8.41652e-05 .. 8.41652e-05
        k : 0.000533264 .. 0.000533264

    Block 325 cell size :
        i : 0.000343507 .. 0.000343507
        j : 8.392e-05 .. 8.392e-05
        k : 0.000540482 .. 0.000540482

    Block 326 cell size :
        i : 0.000317118 .. 0.000317118
        j : 8.32989e-05 .. 8.32989e-05
        k : 0.00055863 .. 0.00055863

    Block 327 cell size :
        i : 0.00031712 .. 0.00031712
        j : 8.27323e-05 .. 8.27323e-05
        k : 0.000575009 .. 0.000575009

    Block 328 cell size :
        i : 0.000253697 .. 0.000253697
        j : 0.000132001 .. 0.000132001
        k : 0.0005769 .. 0.0005769

    Block 329 cell size :
        i : 0.000274804 .. 0.000274804
        j : 0.000132371 .. 0.000132371
        k : 0.000571547 .. 0.000571547

    Block 330 cell size :
        i : 0.000253696 .. 0.000253696
        j : 0.000133361 .. 0.000133361
        k : 0.00055722 .. 0.00055722

    Block 331 cell size :
        i : 0.000274806 .. 0.000274806
        j : 0.000134273 .. 0.000134273
        k : 0.000543929 .. 0.000543929

    Block 332 cell size :
        i : 0.000253695 .. 0.000253695
        j : 0.000134666 .. 0.000134666
        k : 0.000538151 .. 0.000538151

    Block 333 cell size :
        i : 0.000274805 .. 0.000274805
        j : 0.000134273 .. 0.000134273
        k : 0.000543929 .. 0.000543929

    Block 334 cell size :
        i : 0.000253695 .. 0.000253695
        j : 0.000133276 .. 0.000133276
        k : 0.000558445 .. 0.000558445

    Block 335 cell size :
        i : 0.000253697 .. 0.000253697
        j : 0.000132371 .. 0.000132371
        k : 0.000571547 .. 0.000571547

    Block 336 cell size :
        i : 0.000148664 .. 0.000148664
        j : 0.000197999 .. 0.000197999
        k : 0.000569231 .. 0.000569231

    Block 337 cell size :
        i : 0.000148665 .. 0.000148665
        j : 0.000200042 .. 0.000200042
        k : 0.00055742 .. 0.00055742

    Block 338 cell size :
        i : 0.000148665 .. 0.000148665
        j : 0.000202 .. 0.000202
        k : 0.00054598 .. 0.00054598

    Block 339 cell size :
        i : 0.000148666 .. 0.000148666
        j : 0.000199915 .. 0.000199915
        k : 0.000558155 .. 0.000558155

    Block 340 cell size :
        i : 0.00031712 .. 0.00031712
        j : 8.24994e-05 .. 8.24994e-05
        k : 0.000592259 .. 0.000592259

    Block 341 cell size :
        i : 0.000343506 .. 0.000343506
        j : 8.27328e-05 .. 8.27328e-05
        k : 0.00058267 .. 0.00058267

    Block 342 cell size :
        i : 0.000317119 .. 0.000317119
        j : 8.33512e-05 .. 8.33512e-05
        k : 0.000557017 .. 0.000557017

    Block 343 cell size :
        i : 0.000343507 .. 0.000343507
        j : 8.39202e-05 .. 8.39202e-05
        k : 0.00053324 .. 0.00053324

    Block 344 cell size :
        i : 0.00031712 .. 0.00031712
        j : 8.41661e-05 .. 8.41661e-05
        k : 0.000522903 .. 0.000522903

    Block 345 cell size :
        i : 0.000343506 .. 0.000343506
        j : 8.39202e-05 .. 8.39202e-05
        k : 0.00053324 .. 0.00053324

    Block 346 cell size :
        i : 0.000317119 .. 0.000317119
        j : 8.32989e-05 .. 8.32989e-05
        k : 0.000559216 .. 0.000559216

    Block 347 cell size :
        i : 0.00031712 .. 0.00031712
        j : 8.27328e-05 .. 8.27328e-05
        k : 0.00058267 .. 0.00058267

    Block 348 cell size :
        i : 0.000253696 .. 0.000253696
        j : 0.000132001 .. 0.000132001
        k : 0.00058539 .. 0.00058539

    Block 349 cell size :
        i : 0.000274804 .. 0.000274804
        j : 0.000132372 .. 0.000132372
        k : 0.000577721 .. 0.000577721

    Block 350 cell size :
        i : 0.000253696 .. 0.000253696
        j : 0.000133361 .. 0.000133361
        k : 0.000557198 .. 0.000557198

    Block 351 cell size :
        i : 0.000274806 .. 0.000274806
        j : 0.000134273 .. 0.000134273
        k : 0.000538174 .. 0.000538174

    Block 352 cell size :
        i : 0.000253695 .. 0.000253695
        j : 0.000134667 .. 0.000134667
        k : 0.000529905 .. 0.000529905

    Block 353 cell size :
        i : 0.000274805 .. 0.000274805
        j : 0.000134273 .. 0.000134273
        k : 0.000538174 .. 0.000538174

    Block 354 cell size :
        i : 0.000253694 .. 0.000253694
        j : 0.000133276 .. 0.000133276
        k : 0.000558961 .. 0.000558961

    Block 355 cell size :
        i : 0.000253696 .. 0.000253696
        j : 0.000132372 .. 0.000132372
        k : 0.000577721 .. 0.000577721

    Block 356 cell size :
        i : 0.000148665 .. 0.000148665
        j : 0.000198 .. 0.000198
        k : 0.000574399 .. 0.000574399

    Block 357 cell size :
        i : 0.000148664 .. 0.000148664
        j : 0.000200042 .. 0.000200042
        k : 0.000557483 .. 0.000557483

    Block 358 cell size :
        i : 0.000148665 .. 0.000148665
        j : 0.000201998 .. 0.000201998
        k : 0.000541109 .. 0.000541109

    Block 359 cell size :
        i : 0.000148664 .. 0.000148664
        j : 0.000199915 .. 0.000199915
        k : 0.00055854 .. 0.00055854

    Block 360 cell size :
        i : 0.000317121 .. 0.000317121
        j : 8.24995e-05 .. 8.24995e-05
        k : 0.00060746 .. 0.00060746

    Block 361 cell size :
        i : 0.000343506 .. 0.000343506
        j : 8.27324e-05 .. 8.27324e-05
        k : 0.000593744 .. 0.000593744

    Block 362 cell size :
        i : 0.000317119 .. 0.000317119
        j : 8.33512e-05 .. 8.33512e-05
        k : 0.000557031 .. 0.000557031

    Block 363 cell size :
        i : 0.000343507 .. 0.000343507
        j : 8.39204e-05 .. 8.39204e-05
        k : 0.000523004 .. 0.000523004

    Block 364 cell size :
        i : 0.000317121 .. 0.000317121
        j : 8.41669e-05 .. 8.41669e-05
        k : 0.000508218 .. 0.000508218

    Block 365 cell size :
        i : 0.000343507 .. 0.000343507
        j : 8.39204e-05 .. 8.39204e-05
        k : 0.000523004 .. 0.000523004

    Block 366 cell size :
        i : 0.000317119 .. 0.000317119
        j : 8.32989e-05 .. 8.32989e-05
        k : 0.000560179 .. 0.000560179

    Block 367 cell size :
        i : 0.000317121 .. 0.000317121
        j : 8.27324e-05 .. 8.27324e-05
        k : 0.000593744 .. 0.000593744

    Block 368 cell size :
        i : 0.000253696 .. 0.000253696
        j : 0.000132001 .. 0.000132001
        k : 0.000597631 .. 0.000597631

    Block 369 cell size :
        i : 0.000274805 .. 0.000274805
        j : 0.000132372 .. 0.000132372
        k : 0.000586658 .. 0.000586658

    Block 370 cell size :
        i : 0.000253695 .. 0.000253695
        j : 0.000133361 .. 0.000133361
        k : 0.000557287 .. 0.000557287

    Block 371 cell size :
        i : 0.000274806 .. 0.000274806
        j : 0.000134273 .. 0.000134273
        k : 0.000530067 .. 0.000530067

    Block 372 cell size :
        i : 0.000253695 .. 0.000253695
        j : 0.000134667 .. 0.000134667
        k : 0.000518241 .. 0.000518241

    Block 373 cell size :
        i : 0.000274805 .. 0.000274805
        j : 0.000134273 .. 0.000134273
        k : 0.000530067 .. 0.000530067

    Block 374 cell size :
        i : 0.000253694 .. 0.000253694
        j : 0.000133276 .. 0.000133276
        k : 0.000559803 .. 0.000559803

    Block 375 cell size :
        i : 0.000253696 .. 0.000253696
        j : 0.000132372 .. 0.000132372
        k : 0.000586658 .. 0.000586658

    Block 376 cell size :
        i : 0.000148664 .. 0.000148664
        j : 0.000197999 .. 0.000197999
        k : 0.000581902 .. 0.000581902

    Block 377 cell size :
        i : 0.000148665 .. 0.000148665
        j : 0.000200042 .. 0.000200042
        k : 0.000557699 .. 0.000557699

    Block 378 cell size :
        i : 0.000148665 .. 0.000148665
        j : 0.000201999 .. 0.000201999
        k : 0.000534268 .. 0.000534268

    Block 379 cell size :
        i : 0.000148665 .. 0.000148665
        j : 0.000199915 .. 0.000199915
        k : 0.00055921 .. 0.00055921

    Block 380 cell size :
        i : 0.00031712 .. 0.00031712
        j : 8.24994e-05 .. 8.24994e-05
        k : 0.000478053 .. 0.000478053

    Block 381 cell size :
        i : 0.000343506 .. 0.000343506
        j : 8.27325e-05 .. 8.27325e-05
        k : 0.00054628 .. 0.00054628

    Block 382 cell size :
        i : 0.000317119 .. 0.000317119
        j : 8.33497e-05 .. 8.33497e-05
        k : 0.000576885 .. 0.000576885

    Block 383 cell size :
        i : 0.000343507 .. 0.000343507
        j : 8.39207e-05 .. 8.39207e-05
        k : 0.000548522 .. 0.000548522

    Block 384 cell size :
        i : 0.00031712 .. 0.00031712
        j : 8.41668e-05 .. 8.41668e-05
        k : 0.000474927 .. 0.000474927

    Block 385 cell size :
        i : 0.000343505 .. 0.000343505
        j : 8.3921e-05 .. 8.3921e-05
        k : 0.000407494 .. 0.000407494

    Block 386 cell size :
        i : 0.00031712 .. 0.00031712
        j : 8.32971e-05 .. 8.32971e-05
        k : 0.000379105 .. 0.000379105

    Block 387 cell size :
        i : 0.000317119 .. 0.000317119
        j : 8.27329e-05 .. 8.27329e-05
        k : 0.000409725 .. 0.000409725

    Block 388 cell size :
        i : 0.000253695 .. 0.000253695
        j : 0.000132001 .. 0.000132001
        k : 0.000477992 .. 0.000477992

    Block 389 cell size :
        i : 0.000274805 .. 0.000274805
        j : 0.000132372 .. 0.000132372
        k : 0.000532585 .. 0.000532585

    Block 390 cell size :
        i : 0.000253696 .. 0.000253696
        j : 0.000133362 .. 0.000133362
        k : 0.000557079 .. 0.000557079

    Block 391 cell size :
        i : 0.000274805 .. 0.000274805
        j : 0.000134271 .. 0.000134271
        k : 0.000534381 .. 0.000534381

    Block 392 cell size :
        i : 0.000253695 .. 0.000253695
        j : 0.000134665 .. 0.000134665
        k : 0.000475484 .. 0.000475484

    Block 393 cell size :
        i : 0.000274804 .. 0.000274804
        j : 0.000134272 .. 0.000134272
        k : 0.000421547 .. 0.000421547

    Block 394 cell size :
        i : 0.000253697 .. 0.000253697
        j : 0.000133277 .. 0.000133277
        k : 0.000398847 .. 0.000398847

    Block 395 cell size :
        i : 0.000253695 .. 0.000253695
        j : 0.000132372 .. 0.000132372
        k : 0.000423333 .. 0.000423333

    Block 396 cell size :
        i : 0.000148665 .. 0.000148665
        j : 0.000198001 .. 0.000198001
        k : 0.000477922 .. 0.000477922

    Block 397 cell size :
        i : 0.000148663 .. 0.000148663
        j : 0.000200042 .. 0.000200042
        k : 0.000525393 .. 0.000525393

    Block 398 cell size :
        i : 0.000148665 .. 0.000148665
        j : 0.000201999 .. 0.000201999
        k : 0.000476415 .. 0.000476415

    Block 399 cell size :
        i : 0.000148666 .. 0.000148666
        j : 0.000199915 .. 0.000199915
        k : 0.000430445 .. 0.000430445

    Block 400 cell size :
        i : 0.000317119 .. 0.000317119
        j : 8.25011e-05 .. 8.25011e-05
        k : 0.000478985 .. 0.000478985

    Block 401 cell size :
        i : 0.000343506 .. 0.000343506
        j : 8.2732e-05 .. 8.2732e-05
        k : 0.000547093 .. 0.000547093

    Block 402 cell size :
        i : 0.000317121 .. 0.000317121
        j : 8.33506e-05 .. 8.33506e-05
        k : 0.000577655 .. 0.000577655

    Block 403 cell size :
        i : 0.000343505 .. 0.000343505
        j : 8.39202e-05 .. 8.39202e-05
        k : 0.000549329 .. 0.000549329

    Block 404 cell size :
        i : 0.00031712 .. 0.00031712
        j : 8.4165e-05 .. 8.4165e-05
        k : 0.00047586 .. 0.00047586

    Block 405 cell size :
        i : 0.000343506 .. 0.000343506
        j : 8.39198e-05 .. 8.39198e-05
        k : 0.000408579 .. 0.000408579

    Block 406 cell size :
        i : 0.00031712 .. 0.00031712
        j : 8.3297e-05 .. 8.3297e-05
        k : 0.000380275 .. 0.000380275

    Block 407 cell size :
        i : 0.000317119 .. 0.000317119
        j : 8.27327e-05 .. 8.27327e-05
        k : 0.00041081 .. 0.00041081

    Block 408 cell size :
        i : 0.000253695 .. 0.000253695
        j : 0.000131999 .. 0.000131999
        k : 0.000478921 .. 0.000478921

    Block 409 cell size :
        i : 0.000274805 .. 0.000274805
        j : 0.000132372 .. 0.000132372
        k : 0.00053342 .. 0.00053342

    Block 410 cell size :
        i : 0.000253697 .. 0.000253697
        j : 0.000133361 .. 0.000133361
        k : 0.000557872 .. 0.000557872

    Block 411 cell size :
        i : 0.000274805 .. 0.000274805
        j : 0.000134272 .. 0.000134272
        k : 0.000535207 .. 0.000535207

    Block 412 cell size :
        i : 0.000253695 .. 0.000253695
        j : 0.000134667 .. 0.000134667
        k : 0.000476419 .. 0.000476419

    Block 413 cell size :
        i : 0.000274805 .. 0.000274805
        j : 0.000134272 .. 0.000134272
        k : 0.000422593 .. 0.000422593

    Block 414 cell size :
        i : 0.000253697 .. 0.000253697
        j : 0.000133277 .. 0.000133277
        k : 0.000399957 .. 0.000399957

    Block 415 cell size :
        i : 0.000253696 .. 0.000253696
        j : 0.000132372 .. 0.000132372
        k : 0.000424382 .. 0.000424382

    Block 416 cell size :
        i : 0.000148664 .. 0.000148664
        j : 0.000198001 .. 0.000198001
        k : 0.000478847 .. 0.000478847

    Block 417 cell size :
        i : 0.000148665 .. 0.000148665
        j : 0.000200041 .. 0.000200041
        k : 0.000526236 .. 0.000526236

    Block 418 cell size :
        i : 0.000148665 .. 0.000148665
        j : 0.000201999 .. 0.000201999
        k : 0.000477347 .. 0.000477347

    Block 419 cell size :
        i : 0.000148665 .. 0.000148665
        j : 0.000199915 .. 0.000199915
        k : 0.00043148 .. 0.00043148

    Block 420 cell size :
        i : 0.000317121 .. 0.000317121
        j : 8.24995e-05 .. 8.24995e-05
        k : 0.000480142 .. 0.000480142

    Block 421 cell size :
        i : 0.000343506 .. 0.000343506
        j : 8.2733e-05 .. 8.2733e-05
        k : 0.000548107 .. 0.000548107

    Block 422 cell size :
        i : 0.000317119 .. 0.000317119
        j : 8.33507e-05 .. 8.33507e-05
        k : 0.000578616 .. 0.000578616

    Block 423 cell size :
        i : 0.000343505 .. 0.000343505
        j : 8.39203e-05 .. 8.39203e-05
        k : 0.000550334 .. 0.000550334

    Block 424 cell size :
        i : 0.000317121 .. 0.000317121
        j : 8.41668e-05 .. 8.41668e-05
        k : 0.000477023 .. 0.000477023

    Block 425 cell size :
        i : 0.000343506 .. 0.000343506
        j : 8.39206e-05 .. 8.39206e-05
        k : 0.000409933 .. 0.000409933

    Block 426 cell size :
        i : 0.000317119 .. 0.000317119
        j : 8.32985e-05 .. 8.32985e-05
        k : 0.000381735 .. 0.000381735

    Block 427 cell size :
        i : 0.000317119 .. 0.000317119
        j : 8.27318e-05 .. 8.27318e-05
        k : 0.000412159 .. 0.000412159

    Block 428 cell size :
        i : 0.000253695 .. 0.000253695
        j : 0.000132001 .. 0.000132001
        k : 0.000480078 .. 0.000480078

    Block 429 cell size :
        i : 0.000274804 .. 0.000274804
        j : 0.000132371 .. 0.000132371
        k : 0.000534458 .. 0.000534458

    Block 430 cell size :
        i : 0.000253697 .. 0.000253697
        j : 0.000133361 .. 0.000133361
        k : 0.000558867 .. 0.000558867

    Block 431 cell size :
        i : 0.000274804 .. 0.000274804
        j : 0.000134271 .. 0.000134271
        k : 0.000536241 .. 0.000536241

    Block 432 cell size :
        i : 0.000253696 .. 0.000253696
        j : 0.000134667 .. 0.000134667
        k : 0.000477584 .. 0.000477584

    Block 433 cell size :
        i : 0.000274805 .. 0.000274805
        j : 0.000134272 .. 0.000134272
        k : 0.000423909 .. 0.000423909

    Block 434 cell size :
        i : 0.000253695 .. 0.000253695
        j : 0.000133276 .. 0.000133276
        k : 0.00040134 .. 0.00040134

    Block 435 cell size :
        i : 0.000253698 .. 0.000253698
        j : 0.000132372 .. 0.000132372
        k : 0.000425685 .. 0.000425685

    Block 436 cell size :
        i : 0.000148666 .. 0.000148666
        j : 0.000197999 .. 0.000197999
        k : 0.000480008 .. 0.000480008

    Block 437 cell size :
        i : 0.000148665 .. 0.000148665
        j : 0.000200042 .. 0.000200042
        k : 0.00052729 .. 0.00052729

    Block 438 cell size :
        i : 0.000148665 .. 0.000148665
        j : 0.000201999 .. 0.000201999
        k : 0.000478509 .. 0.000478509

    Block 439 cell size :
        i : 0.000148666 .. 0.000148666
        j : 0.000199915 .. 0.000199915
        k : 0.000432761 .. 0.000432761

    Block 440 cell size :
        i : 0.000317119 .. 0.000317119
        j : 8.25013e-05 .. 8.25013e-05
        k : 0.000480806 .. 0.000480806

    Block 441 cell size :
        i : 0.000343506 .. 0.000343506
        j : 8.27319e-05 .. 8.27319e-05
        k : 0.000548688 .. 0.000548688

    Block 442 cell size :
        i : 0.000317121 .. 0.000317121
        j : 8.33515e-05 .. 8.33515e-05
        k : 0.000579166 .. 0.000579166

    Block 443 cell size :
        i : 0.000343504 .. 0.000343504
        j : 8.39196e-05 .. 8.39196e-05
        k : 0.000550919 .. 0.000550919

    Block 444 cell size :
        i : 0.000317119 .. 0.000317119
        j : 8.4165e-05 .. 8.4165e-05
        k : 0.00047769 .. 0.00047769

    Block 445 cell size :
        i : 0.000343507 .. 0.000343507
        j : 8.39203e-05 .. 8.39203e-05
        k : 0.000410713 .. 0.000410713

    Block 446 cell size :
        i : 0.000317121 .. 0.000317121
        j : 8.32977e-05 .. 8.32977e-05
        k : 0.000382565 .. 0.000382565

    Block 447 cell size :
        i : 0.000317119 .. 0.000317119
        j : 8.27314e-05 .. 8.27314e-05
        k : 0.000412932 .. 0.000412932

    Block 448 cell size :
        i : 0.000253696 .. 0.000253696
        j : 0.000131999 .. 0.000131999
        k : 0.000480742 .. 0.000480742

    Block 449 cell size :
        i : 0.000274804 .. 0.000274804
        j : 0.000132371 .. 0.000132371
        k : 0.000535055 .. 0.000535055

    Block 450 cell size :
        i : 0.000253697 .. 0.000253697
        j : 0.000133361 .. 0.000133361
        k : 0.000559441 .. 0.000559441

    Block 451 cell size :
        i : 0.000274806 .. 0.000274806
        j : 0.000134272 .. 0.000134272
        k : 0.000536839 .. 0.000536839

    Block 452 cell size :
        i : 0.000253694 .. 0.000253694
        j : 0.000134667 .. 0.000134667
        k : 0.000478248 .. 0.000478248

    Block 453 cell size :
        i : 0.000274806 .. 0.000274806
        j : 0.000134272 .. 0.000134272
        k : 0.000424658 .. 0.000424658

    Block 454 cell size :
        i : 0.000253697 .. 0.000253697
        j : 0.000133278 .. 0.000133278
        k : 0.000402136 .. 0.000402136

    Block 455 cell size :
        i : 0.000253696 .. 0.000253696
        j : 0.000132372 .. 0.000132372
        k : 0.000426436 .. 0.000426436

    Block 456 cell size :
        i : 0.000148666 .. 0.000148666
        j : 0.000198 .. 0.000198
        k : 0.000480669 .. 0.000480669

    Block 457 cell size :
        i : 0.000148665 .. 0.000148665
        j : 0.000200041 .. 0.000200041
        k : 0.000527891 .. 0.000527891

    Block 458 cell size :
        i : 0.000148665 .. 0.000148665
        j : 0.000201999 .. 0.000201999
        k : 0.000479174 .. 0.000479174

    Block 459 cell size :
        i : 0.000148665 .. 0.000148665
        j : 0.000199915 .. 0.000199915
        k : 0.000433498 .. 0.000433498

    Block 460 cell size :
        i : 0.000317119 .. 0.000317119
        j : 8.2501e-05 .. 8.2501e-05
        k : 0.000480803 .. 0.000480803

    Block 461 cell size :
        i : 0.000343506 .. 0.000343506
        j : 8.27319e-05 .. 8.27319e-05
        k : 0.000548691 .. 0.000548691

    Block 462 cell size :
        i : 0.000317119 .. 0.000317119
        j : 8.335e-05 .. 8.335e-05
        k : 0.000579164 .. 0.000579164

    Block 463 cell size :
        i : 0.000343508 .. 0.000343508
        j : 8.39198e-05 .. 8.39198e-05
        k : 0.000550917 .. 0.000550917

    Block 464 cell size :
        i : 0.00031712 .. 0.00031712
        j : 8.41669e-05 .. 8.41669e-05
        k : 0.00047769 .. 0.00047769

    Block 465 cell size :
        i : 0.000343505 .. 0.000343505
        j : 8.39204e-05 .. 8.39204e-05
        k : 0.000410714 .. 0.000410714

    Block 466 cell size :
        i : 0.000317121 .. 0.000317121
        j : 8.32984e-05 .. 8.32984e-05
        k : 0.000382563 .. 0.000382563

    Block 467 cell size :
        i : 0.000317118 .. 0.000317118
        j : 8.27321e-05 .. 8.27321e-05
        k : 0.000412931 .. 0.000412931

    Block 468 cell size :
        i : 0.000253696 .. 0.000253696
        j : 0.000131999 .. 0.000131999
        k : 0.000480746 .. 0.000480746

    Block 469 cell size :
        i : 0.000274805 .. 0.000274805
        j : 0.000132372 .. 0.000132372
        k : 0.000535054 .. 0.000535054

    Block 470 cell size :
        i : 0.000253695 .. 0.000253695
        j : 0.000133361 .. 0.000133361
        k : 0.000559439 .. 0.000559439

    Block 471 cell size :
        i : 0.000274806 .. 0.000274806
        j : 0.000134272 .. 0.000134272
        k : 0.000536836 .. 0.000536836

    Block 472 cell size :
        i : 0.000253696 .. 0.000253696
        j : 0.000134665 .. 0.000134665
        k : 0.000478254 .. 0.000478254

    Block 473 cell size :
        i : 0.000274803 .. 0.000274803
        j : 0.000134272 .. 0.000134272
        k : 0.00042466 .. 0.00042466

    Block 474 cell size :
        i : 0.000253697 .. 0.000253697
        j : 0.000133277 .. 0.000133277
        k : 0.000402137 .. 0.000402137

    Block 475 cell size :
        i : 0.000253694 .. 0.000253694
        j : 0.000132371 .. 0.000132371
        k : 0.000426433 .. 0.000426433

    Block 476 cell size :
        i : 0.000148665 .. 0.000148665
        j : 0.000198001 .. 0.000198001
        k : 0.000480673 .. 0.000480673

    Block 477 cell size :
        i : 0.000148665 .. 0.000148665
        j : 0.000200042 .. 0.000200042
        k : 0.000527896 .. 0.000527896

    Block 478 cell size :
        i : 0.000148664 .. 0.000148664
        j : 0.000201999 .. 0.000201999
        k : 0.000479176 .. 0.000479176

    Block 479 cell size :
        i : 0.000148665 .. 0.000148665
        j : 0.000199915 .. 0.000199915
        k : 0.000433497 .. 0.000433497

    Block 480 cell size :
        i : 0.000317119 .. 0.000317119
        j : 8.24995e-05 .. 8.24995e-05
        k : 0.000480807 .. 0.000480807

    Block 481 cell size :
        i : 0.000343506 .. 0.000343506
        j : 8.27322e-05 .. 8.27322e-05
        k : 0.000548685 .. 0.000548685

    Block 482 cell size :
        i : 0.00031712 .. 0.00031712
        j : 8.33508e-05 .. 8.33508e-05
        k : 0.000579165 .. 0.000579165

    Block 483 cell size :
        i : 0.000343507 .. 0.000343507
        j : 8.39205e-05 .. 8.39205e-05
        k : 0.000550916 .. 0.000550916

    Block 484 cell size :
        i : 0.00031712 .. 0.00031712
        j : 8.41669e-05 .. 8.41669e-05
        k : 0.000477692 .. 0.000477692

    Block 485 cell size :
        i : 0.000343505 .. 0.000343505
        j : 8.39207e-05 .. 8.39207e-05
        k : 0.000410715 .. 0.000410715

    Block 486 cell size :
        i : 0.00031712 .. 0.00031712
        j : 8.32989e-05 .. 8.32989e-05
        k : 0.000382567 .. 0.000382567

    Block 487 cell size :
        i : 0.00031712 .. 0.00031712
        j : 8.2732e-05 .. 8.2732e-05
        k : 0.00041293 .. 0.00041293

    Block 488 cell size :
        i : 0.000253696 .. 0.000253696
        j : 0.000132001 .. 0.000132001
        k : 0.000480741 .. 0.000480741

    Block 489 cell size :
        i : 0.000274805 .. 0.000274805
        j : 0.000132371 .. 0.000132371
        k : 0.000535057 .. 0.000535057

    Block 490 cell size :
        i : 0.000253696 .. 0.000253696
        j : 0.000133361 .. 0.000133361
        k : 0.000559439 .. 0.000559439

    Block 491 cell size :
        i : 0.000274803 .. 0.000274803
        j : 0.000134272 .. 0.000134272
        k : 0.000536839 .. 0.000536839

    Block 492 cell size :
        i : 0.000253696 .. 0.000253696
        j : 0.000134667 .. 0.000134667
        k : 0.000478248 .. 0.000478248

    Block 493 cell size :
        i : 0.000274805 .. 0.000274805
        j : 0.000134272 .. 0.000134272
        k : 0.000424655 .. 0.000424655

    Block 494 cell size :
        i : 0.000253695 .. 0.000253695
        j : 0.000133276 .. 0.000133276
        k : 0.000402137 .. 0.000402137

    Block 495 cell size :
        i : 0.000253696 .. 0.000253696
        j : 0.000132372 .. 0.000132372
        k : 0.000426437 .. 0.000426437

    Block 496 cell size :
        i : 0.000148665 .. 0.000148665
        j : 0.000197999 .. 0.000197999
        k : 0.000480672 .. 0.000480672

    Block 497 cell size :
        i : 0.000148666 .. 0.000148666
        j : 0.000200042 .. 0.000200042
        k : 0.000527896 .. 0.000527896

    Block 498 cell size :
        i : 0.000148665 .. 0.000148665
        j : 0.000201999 .. 0.000201999
        k : 0.000479174 .. 0.000479174

    Block 499 cell size :
        i : 0.000148665 .. 0.000148665
        j : 0.000199916 .. 0.000199916
        k : 0.000433502 .. 0.000433502

    Block 500 cell size :
        i : 0.00031712 .. 0.00031712
        j : 8.24994e-05 .. 8.24994e-05
        k : 0.000480802 .. 0.000480802

    Block 501 cell size :
        i : 0.000343507 .. 0.000343507
        j : 8.27319e-05 .. 8.27319e-05
        k : 0.000548689 .. 0.000548689

    Block 502 cell size :
        i : 0.00031712 .. 0.00031712
        j : 8.33502e-05 .. 8.33502e-05
        k : 0.000579171 .. 0.000579171

    Block 503 cell size :
        i : 0.000343505 .. 0.000343505
        j : 8.39197e-05 .. 8.39197e-05
        k : 0.00055092 .. 0.00055092

    Block 504 cell size :
        i : 0.00031712 .. 0.00031712
        j : 8.41651e-05 .. 8.41651e-05
        k : 0.000477692 .. 0.000477692

    Block 505 cell size :
        i : 0.000343506 .. 0.000343506
        j : 8.39192e-05 .. 8.39192e-05
        k : 0.000410714 .. 0.000410714

    Block 506 cell size :
        i : 0.000317119 .. 0.000317119
        j : 8.32975e-05 .. 8.32975e-05
        k : 0.000382563 .. 0.000382563

    Block 507 cell size :
        i : 0.00031712 .. 0.00031712
        j : 8.27323e-05 .. 8.27323e-05
        k : 0.000412932 .. 0.000412932

    Block 508 cell size :
        i : 0.000253696 .. 0.000253696
        j : 0.000131999 .. 0.000131999
        k : 0.000480741 .. 0.000480741

    Block 509 cell size :
        i : 0.000274804 .. 0.000274804
        j : 0.000132372 .. 0.000132372
        k : 0.000535054 .. 0.000535054

    Block 510 cell size :
        i : 0.000253697 .. 0.000253697
        j : 0.000133362 .. 0.000133362
        k : 0.000559437 .. 0.000559437

    Block 511 cell size :
        i : 0.000274804 .. 0.000274804
        j : 0.000134272 .. 0.000134272
        k : 0.000536834 .. 0.000536834

    Block 512 cell size :
        i : 0.000253697 .. 0.000253697
        j : 0.000134667 .. 0.000134667
        k : 0.000478251 .. 0.000478251

    Block 513 cell size :
        i : 0.000274805 .. 0.000274805
        j : 0.000134273 .. 0.000134273
        k : 0.000424659 .. 0.000424659

    Block 514 cell size :
        i : 0.000253695 .. 0.000253695
        j : 0.000133276 .. 0.000133276
        k : 0.000402139 .. 0.000402139

    Block 515 cell size :
        i : 0.000253697 .. 0.000253697
        j : 0.000132372 .. 0.000132372
        k : 0.000426431 .. 0.000426431

    Block 516 cell size :
        i : 0.000148665 .. 0.000148665
        j : 0.000198001 .. 0.000198001
        k : 0.000480669 .. 0.000480669

    Block 517 cell size :
        i : 0.000148665 .. 0.000148665
        j : 0.000200041 .. 0.000200041
        k : 0.000527895 .. 0.000527895

    Block 518 cell size :
        i : 0.000148664 .. 0.000148664
        j : 0.000201999 .. 0.000201999
        k : 0.000479176 .. 0.000479176

    Block 519 cell size :
        i : 0.000148664 .. 0.000148664
        j : 0.000199916 .. 0.000199916
        k : 0.000433496 .. 0.000433496

    Block 520 cell size :
        i : 0.000317119 .. 0.000317119
        j : 8.25011e-05 .. 8.25011e-05
        k : 0.000480806 .. 0.000480806

    Block 521 cell size :
        i : 0.000343506 .. 0.000343506
        j : 8.27326e-05 .. 8.27326e-05
        k : 0.000548687 .. 0.000548687

    Block 522 cell size :
        i : 0.000317121 .. 0.000317121
        j : 8.33512e-05 .. 8.33512e-05
        k : 0.000579165 .. 0.000579165

    Block 523 cell size :
        i : 0.000343506 .. 0.000343506
        j : 8.39198e-05 .. 8.39198e-05
        k : 0.000550918 .. 0.000550918

    Block 524 cell size :
        i : 0.000317118 .. 0.000317118
        j : 8.41652e-05 .. 8.41652e-05
        k : 0.00047769 .. 0.00047769

    Block 525 cell size :
        i : 0.000343507 .. 0.000343507
        j : 8.39195e-05 .. 8.39195e-05
        k : 0.000410713 .. 0.000410713

    Block 526 cell size :
        i : 0.00031712 .. 0.00031712
        j : 8.32983e-05 .. 8.32983e-05
        k : 0.000382569 .. 0.000382569

    Block 527 cell size :
        i : 0.00031712 .. 0.00031712
        j : 8.27329e-05 .. 8.27329e-05
        k : 0.000412929 .. 0.000412929

    Block 528 cell size :
        i : 0.000253696 .. 0.000253696
        j : 0.000131999 .. 0.000131999
        k : 0.000480743 .. 0.000480743

    Block 529 cell size :
        i : 0.000274805 .. 0.000274805
        j : 0.000132371 .. 0.000132371
        k : 0.000535056 .. 0.000535056

    Block 530 cell size :
        i : 0.000253696 .. 0.000253696
        j : 0.00013336 .. 0.00013336
        k : 0.000559439 .. 0.000559439

    Block 531 cell size :
        i : 0.000274805 .. 0.000274805
        j : 0.000134272 .. 0.000134272
        k : 0.000536842 .. 0.000536842

    Block 532 cell size :
        i : 0.000253696 .. 0.000253696
        j : 0.000134667 .. 0.000134667
        k : 0.000478251 .. 0.000478251

    Block 533 cell size :
        i : 0.000274805 .. 0.000274805
        j : 0.000134273 .. 0.000134273
        k : 0.000424658 .. 0.000424658

    Block 534 cell size :
        i : 0.000253697 .. 0.000253697
        j : 0.000133276 .. 0.000133276
        k : 0.000402134 .. 0.000402134

    Block 535 cell size :
        i : 0.000253694 .. 0.000253694
        j : 0.000132371 .. 0.000132371
        k : 0.000426436 .. 0.000426436

    Block 536 cell size :
        i : 0.000148665 .. 0.000148665
        j : 0.000198001 .. 0.000198001
        k : 0.000480674 .. 0.000480674

    Block 537 cell size :
        i : 0.000148665 .. 0.000148665
        j : 0.000200042 .. 0.000200042
        k : 0.000527896 .. 0.000527896

    Block 538 cell size :
        i : 0.000148666 .. 0.000148666
        j : 0.000201999 .. 0.000201999
        k : 0.000479174 .. 0.000479174

    Block 539 cell size :
        i : 0.000148665 .. 0.000148665
        j : 0.000199915 .. 0.000199915
        k : 0.0004335 .. 0.0004335

    Block 540 cell size :
        i : 0.00031712 .. 0.00031712
        j : 8.24997e-05 .. 8.24997e-05
        k : 0.000480807 .. 0.000480807

    Block 541 cell size :
        i : 0.000343506 .. 0.000343506
        j : 8.27321e-05 .. 8.27321e-05
        k : 0.000548689 .. 0.000548689

    Block 542 cell size :
        i : 0.000317119 .. 0.000317119
        j : 8.33505e-05 .. 8.33505e-05
        k : 0.000579165 .. 0.000579165

    Block 543 cell size :
        i : 0.000343506 .. 0.000343506
        j : 8.39204e-05 .. 8.39204e-05
        k : 0.000550913 .. 0.000550913

    Block 544 cell size :
        i : 0.000317121 .. 0.000317121
        j : 8.41668e-05 .. 8.41668e-05
        k : 0.000477692 .. 0.000477692

    Block 545 cell size :
        i : 0.000343506 .. 0.000343506
        j : 8.39202e-05 .. 8.39202e-05
        k : 0.00041071 .. 0.00041071

    Block 546 cell size :
        i : 0.00031712 .. 0.00031712
        j : 8.32985e-05 .. 8.32985e-05
        k : 0.000382565 .. 0.000382565

    Block 547 cell size :
        i : 0.000317119 .. 0.000317119
        j : 8.27322e-05 .. 8.27322e-05
        k : 0.000412933 .. 0.000412933

    Block 548 cell size :
        i : 0.000253696 .. 0.000253696
        j : 0.000132001 .. 0.000132001
        k : 0.000480739 .. 0.000480739

    Block 549 cell size :
        i : 0.000274805 .. 0.000274805
[...]
    Block 2184 cell size :
        i : 0.00031712 .. 0.00031712
        j : 8.41667e-05 .. 8.41667e-05
        k : 0.000279814 .. 0.000279814

    Block 2185 cell size :
        i : 0.000343506 .. 0.000343506
        j : 8.39203e-05 .. 8.39203e-05
        k : 0.000279524 .. 0.000279524

    Block 2186 cell size :
        i : 0.00031712 .. 0.00031712
        j : 8.32967e-05 .. 8.32967e-05
        k : 0.000278809 .. 0.000278809

    Block 2187 cell size :
        i : 0.000317119 .. 0.000317119
        j : 8.27323e-05 .. 8.27323e-05
        k : 0.000278164 .. 0.000278164

    Block 2188 cell size :
        i : 0.000253695 .. 0.000253695
        j : 0.000131999 .. 0.000131999
        k : 0.000278089 .. 0.000278089

    Block 2189 cell size :
        i : 0.000274804 .. 0.000274804
        j : 0.00013237 .. 0.00013237
        k : 0.000278304 .. 0.000278304

    Block 2190 cell size :
        i : 0.000253697 .. 0.000253697
        j : 0.000133361 .. 0.000133361
        k : 0.000278869 .. 0.000278869

    Block 2191 cell size :
        i : 0.000274805 .. 0.000274805
        j : 0.000134272 .. 0.000134272
        k : 0.000279389 .. 0.000279389

    Block 2192 cell size :
        i : 0.000253696 .. 0.000253696
        j : 0.000134665 .. 0.000134665
        k : 0.000279619 .. 0.000279619

    Block 2193 cell size :
        i : 0.000274805 .. 0.000274805
        j : 0.000134272 .. 0.000134272
        k : 0.000279389 .. 0.000279389

    Block 2194 cell size :
        i : 0.000253696 .. 0.000253696
        j : 0.000133277 .. 0.000133277
        k : 0.000278814 .. 0.000278814

    Block 2195 cell size :
        i : 0.000253696 .. 0.000253696
        j : 0.000132371 .. 0.000132371
        k : 0.000278299 .. 0.000278299

    Block 2196 cell size :
        i : 0.000148665 .. 0.000148665
        j : 0.000198 .. 0.000198
        k : 0.000278394 .. 0.000278394

    Block 2197 cell size :
        i : 0.000148665 .. 0.000148665
        j : 0.000200042 .. 0.000200042
        k : 0.000278859 .. 0.000278859

    Block 2198 cell size :
        i : 0.000148666 .. 0.000148666
        j : 0.000202 .. 0.000202
        k : 0.000279309 .. 0.000279309

    Block 2199 cell size :
        i : 0.000148665 .. 0.000148665
        j : 0.000199915 .. 0.000199915
        k : 0.000278829 .. 0.000278829

    Block 2200 cell size :
        i : 0.00031712 .. 0.00031712
        j : 8.25001e-05 .. 8.25001e-05
        k : 0.000278184 .. 0.000278184

    Block 2201 cell size :
        i : 0.000343507 .. 0.000343507
        j : 8.27324e-05 .. 8.27324e-05
        k : 0.000278369 .. 0.000278369

    Block 2202 cell size :
        i : 0.000317119 .. 0.000317119
        j : 8.33507e-05 .. 8.33507e-05
        k : 0.000278864 .. 0.000278864

    Block 2203 cell size :
        i : 0.000343506 .. 0.000343506
        j : 8.39201e-05 .. 8.39201e-05
        k : 0.000279324 .. 0.000279324

    Block 2204 cell size :
        i : 0.000317119 .. 0.000317119
        j : 8.41666e-05 .. 8.41666e-05
        k : 0.000279519 .. 0.000279519

    Block 2205 cell size :
        i : 0.000343505 .. 0.000343505
        j : 8.39205e-05 .. 8.39205e-05
        k : 0.000279324 .. 0.000279324

    Block 2206 cell size :
        i : 0.000317119 .. 0.000317119
        j : 8.32984e-05 .. 8.32984e-05
        k : 0.000278824 .. 0.000278824

    Block 2207 cell size :
        i : 0.000317121 .. 0.000317121
        j : 8.27333e-05 .. 8.27333e-05
        k : 0.000278369 .. 0.000278369

    Block 2208 cell size :
        i : 0.000253697 .. 0.000253697
        j : 0.000132 .. 0.000132
        k : 0.000278319 .. 0.000278319

    Block 2209 cell size :
        i : 0.000274804 .. 0.000274804
        j : 0.000132371 .. 0.000132371
        k : 0.000278464 .. 0.000278464

    Block 2210 cell size :
        i : 0.000253696 .. 0.000253696
        j : 0.000133362 .. 0.000133362
        k : 0.000278859 .. 0.000278859

    Block 2211 cell size :
        i : 0.000274805 .. 0.000274805
        j : 0.000134272 .. 0.000134272
        k : 0.000279224 .. 0.000279224

    Block 2212 cell size :
        i : 0.000253696 .. 0.000253696
        j : 0.000134665 .. 0.000134665
        k : 0.000279384 .. 0.000279384

    Block 2213 cell size :
        i : 0.000274804 .. 0.000274804
        j : 0.000134272 .. 0.000134272
        k : 0.000279229 .. 0.000279229

    Block 2214 cell size :
        i : 0.000253696 .. 0.000253696
        j : 0.000133275 .. 0.000133275
        k : 0.000278824 .. 0.000278824

    Block 2215 cell size :
        i : 0.000253695 .. 0.000253695
        j : 0.000132371 .. 0.000132371
        k : 0.000278464 .. 0.000278464

    Block 2216 cell size :
        i : 0.000148664 .. 0.000148664
        j : 0.000198 .. 0.000198
        k : 0.000278529 .. 0.000278529

    Block 2217 cell size :
        i : 0.000148665 .. 0.000148665
        j : 0.000200042 .. 0.000200042
        k : 0.000278854 .. 0.000278854

    Block 2218 cell size :
        i : 0.000148665 .. 0.000148665
        j : 0.000202 .. 0.000202
        k : 0.000279169 .. 0.000279169

    Block 2219 cell size :
        i : 0.000148665 .. 0.000148665
        j : 0.000199915 .. 0.000199915
        k : 0.000278834 .. 0.000278834

    Block 2220 cell size :
        i : 0.000317119 .. 0.000317119
        j : 8.25e-05 .. 8.25e-05
        k : 0.000278384 .. 0.000278384

    Block 2221 cell size :
        i : 0.000343506 .. 0.000343506
        j : 8.27325e-05 .. 8.27325e-05
        k : 0.000278514 .. 0.000278514

    Block 2222 cell size :
        i : 0.00031712 .. 0.00031712
        j : 8.33507e-05 .. 8.33507e-05
        k : 0.000278859 .. 0.000278859

    Block 2223 cell size :
        i : 0.000343506 .. 0.000343506
        j : 8.392e-05 .. 8.392e-05
        k : 0.000279174 .. 0.000279174

    Block 2224 cell size :
        i : 0.000317119 .. 0.000317119
        j : 8.41649e-05 .. 8.41649e-05
        k : 0.000279314 .. 0.000279314

    Block 2225 cell size :
        i : 0.000343506 .. 0.000343506
        j : 8.39206e-05 .. 8.39206e-05
        k : 0.000279174 .. 0.000279174

    Block 2226 cell size :
        i : 0.000317119 .. 0.000317119
        j : 8.32967e-05 .. 8.32967e-05
        k : 0.000278824 .. 0.000278824

    Block 2227 cell size :
        i : 0.000317121 .. 0.000317121
        j : 8.27331e-05 .. 8.27331e-05
        k : 0.000278509 .. 0.000278509

    Block 2228 cell size :
        i : 0.000253696 .. 0.000253696
        j : 0.000132 .. 0.000132
        k : 0.000278474 .. 0.000278474

    Block 2229 cell size :
        i : 0.000274804 .. 0.000274804
        j : 0.000132371 .. 0.000132371
        k : 0.000278579 .. 0.000278579

    Block 2230 cell size :
        i : 0.000253696 .. 0.000253696
        j : 0.000133361 .. 0.000133361
        k : 0.000278854 .. 0.000278854

    Block 2231 cell size :
        i : 0.000274806 .. 0.000274806
        j : 0.000134272 .. 0.000134272
        k : 0.000279114 .. 0.000279114

    Block 2232 cell size :
        i : 0.000253696 .. 0.000253696
        j : 0.000134667 .. 0.000134667
        k : 0.000279224 .. 0.000279224

    Block 2233 cell size :
        i : 0.000274804 .. 0.000274804
        j : 0.000134272 .. 0.000134272
        k : 0.000279109 .. 0.000279109

    Block 2234 cell size :
        i : 0.000253696 .. 0.000253696
        j : 0.000133277 .. 0.000133277
        k : 0.000278834 .. 0.000278834

    Block 2235 cell size :
        i : 0.000253695 .. 0.000253695
        j : 0.000132371 .. 0.000132371
        k : 0.000278579 .. 0.000278579

    Block 2236 cell size :
        i : 0.000148664 .. 0.000148664
        j : 0.000198 .. 0.000198
        k : 0.000278624 .. 0.000278624

    Block 2237 cell size :
        i : 0.000148665 .. 0.000148665
        j : 0.000200042 .. 0.000200042
        k : 0.000278854 .. 0.000278854

    Block 2238 cell size :
        i : 0.000148665 .. 0.000148665
        j : 0.000202 .. 0.000202
        k : 0.000279074 .. 0.000279074

    Block 2239 cell size :
        i : 0.000148665 .. 0.000148665
        j : 0.000199915 .. 0.000199915
        k : 0.000278834 .. 0.000278834

    Block 2240 cell size :
        i : 0.000317119 .. 0.000317119
        j : 8.25e-05 .. 8.25e-05
        k : 0.000278524 .. 0.000278524

    Block 2241 cell size :
        i : 0.000343506 .. 0.000343506
        j : 8.27314e-05 .. 8.27314e-05
        k : 0.000278614 .. 0.000278614

    Block 2242 cell size :
        i : 0.00031712 .. 0.00031712
        j : 8.33507e-05 .. 8.33507e-05
        k : 0.000278854 .. 0.000278854

    Block 2243 cell size :
        i : 0.000343507 .. 0.000343507
        j : 8.39199e-05 .. 8.39199e-05
        k : 0.000279079 .. 0.000279079

    Block 2244 cell size :
        i : 0.000317118 .. 0.000317118
        j : 8.41649e-05 .. 8.41649e-05
        k : 0.000279179 .. 0.000279179

    Block 2245 cell size :
        i : 0.000343506 .. 0.000343506
        j : 8.39207e-05 .. 8.39207e-05
        k : 0.000279079 .. 0.000279079

    Block 2246 cell size :
        i : 0.000317119 .. 0.000317119
        j : 8.32984e-05 .. 8.32984e-05
        k : 0.000278834 .. 0.000278834

    Block 2247 cell size :
        i : 0.000317121 .. 0.000317121
        j : 8.27318e-05 .. 8.27318e-05
        k : 0.000278614 .. 0.000278614

    Block 2248 cell size :
        i : 0.000253695 .. 0.000253695
        j : 0.000132 .. 0.000132
        k : 0.000278589 .. 0.000278589

    Block 2249 cell size :
        i : 0.000274805 .. 0.000274805
        j : 0.000132371 .. 0.000132371
        k : 0.000278659 .. 0.000278659

    Block 2250 cell size :
        i : 0.000253696 .. 0.000253696
        j : 0.000133362 .. 0.000133362
        k : 0.000278854 .. 0.000278854

    Block 2251 cell size :
        i : 0.000274806 .. 0.000274806
        j : 0.000134273 .. 0.000134273
        k : 0.000279029 .. 0.000279029

    Block 2252 cell size :
        i : 0.000253696 .. 0.000253696
        j : 0.000134667 .. 0.000134667
        k : 0.000279109 .. 0.000279109

    Block 2253 cell size :
        i : 0.000274805 .. 0.000274805
        j : 0.000134272 .. 0.000134272
        k : 0.000279034 .. 0.000279034

    Block 2254 cell size :
        i : 0.000253696 .. 0.000253696
        j : 0.000133275 .. 0.000133275
        k : 0.000278834 .. 0.000278834

    Block 2255 cell size :
        i : 0.000253694 .. 0.000253694
        j : 0.000132372 .. 0.000132372
        k : 0.000278659 .. 0.000278659

    Block 2256 cell size :
        i : 0.000148666 .. 0.000148666
        j : 0.000198 .. 0.000198
        k : 0.000278689 .. 0.000278689

    Block 2257 cell size :
        i : 0.000148665 .. 0.000148665
        j : 0.000200042 .. 0.000200042
        k : 0.000278849 .. 0.000278849

    Block 2258 cell size :
        i : 0.000148665 .. 0.000148665
        j : 0.000202 .. 0.000202
        k : 0.000279004 .. 0.000279004

    Block 2259 cell size :
        i : 0.000148665 .. 0.000148665
        j : 0.000199915 .. 0.000199915
        k : 0.000278844 .. 0.000278844

    Block 2260 cell size :
        i : 0.00031712 .. 0.00031712
        j : 8.25e-05 .. 8.25e-05
        k : 0.000278619 .. 0.000278619

    Block 2261 cell size :
        i : 0.000343506 .. 0.000343506
        j : 8.27315e-05 .. 8.27315e-05
        k : 0.000278684 .. 0.000278684

    Block 2262 cell size :
        i : 0.000317119 .. 0.000317119
        j : 8.33507e-05 .. 8.33507e-05
        k : 0.000278849 .. 0.000278849

    Block 2263 cell size :
        i : 0.000343506 .. 0.000343506
        j : 8.3921e-05 .. 8.3921e-05
        k : 0.000279009 .. 0.000279009

    Block 2264 cell size :
        i : 0.000317118 .. 0.000317118
        j : 8.41649e-05 .. 8.41649e-05
        k : 0.000279074 .. 0.000279074

    Block 2265 cell size :
        i : 0.000343506 .. 0.000343506
        j : 8.39196e-05 .. 8.39196e-05
        k : 0.000279009 .. 0.000279009

    Block 2266 cell size :
        i : 0.00031712 .. 0.00031712
        j : 8.32984e-05 .. 8.32984e-05
        k : 0.000278839 .. 0.000278839

    Block 2267 cell size :
        i : 0.00031712 .. 0.00031712
        j : 8.27306e-05 .. 8.27306e-05
        k : 0.000278684 .. 0.000278684

    Block 2268 cell size :
        i : 0.000253695 .. 0.000253695
        j : 0.000132 .. 0.000132
        k : 0.000278664 .. 0.000278664

    Block 2269 cell size :
        i : 0.000274804 .. 0.000274804
        j : 0.000132372 .. 0.000132372
        k : 0.000278714 .. 0.000278714

    Block 2270 cell size :
        i : 0.000253696 .. 0.000253696
        j : 0.000133361 .. 0.000133361
        k : 0.000278849 .. 0.000278849

    Block 2271 cell size :
        i : 0.000274805 .. 0.000274805
        j : 0.000134272 .. 0.000134272
        k : 0.000278974 .. 0.000278974

    Block 2272 cell size :
        i : 0.000253697 .. 0.000253697
        j : 0.000134666 .. 0.000134666
        k : 0.000279029 .. 0.000279029

    Block 2273 cell size :
        i : 0.000274804 .. 0.000274804
        j : 0.000134272 .. 0.000134272
        k : 0.000278974 .. 0.000278974

    Block 2274 cell size :
        i : 0.000253696 .. 0.000253696
        j : 0.000133277 .. 0.000133277
        k : 0.000278839 .. 0.000278839

    Block 2275 cell size :
        i : 0.000253696 .. 0.000253696
        j : 0.000132373 .. 0.000132373
        k : 0.000278719 .. 0.000278719

    Block 2276 cell size :
        i : 0.000148666 .. 0.000148666
        j : 0.000198 .. 0.000198
        k : 0.000278739 .. 0.000278739

    Block 2277 cell size :
        i : 0.000148665 .. 0.000148665
        j : 0.000200042 .. 0.000200042
        k : 0.000278849 .. 0.000278849

    Block 2278 cell size :
        i : 0.000148665 .. 0.000148665
        j : 0.000202 .. 0.000202
        k : 0.000278954 .. 0.000278954

    Block 2279 cell size :
        i : 0.000148665 .. 0.000148665
        j : 0.000199915 .. 0.000199915
        k : 0.000278839 .. 0.000278839

    Block 2280 cell size :
        i : 0.00031712 .. 0.00031712
        j : 8.25e-05 .. 8.25e-05
        k : 0.000278689 .. 0.000278689

    Block 2281 cell size :
        i : 0.000343506 .. 0.000343506
        j : 8.27315e-05 .. 8.27315e-05
        k : 0.000278734 .. 0.000278734

    Block 2282 cell size :
        i : 0.000317119 .. 0.000317119
        j : 8.33507e-05 .. 8.33507e-05
        k : 0.000278849 .. 0.000278849

    Block 2283 cell size :
        i : 0.000343506 .. 0.000343506
        j : 8.3921e-05 .. 8.3921e-05
        k : 0.000278959 .. 0.000278959

    Block 2284 cell size :
        i : 0.000317119 .. 0.000317119
        j : 8.41649e-05 .. 8.41649e-05
        k : 0.000279004 .. 0.000279004

    Block 2285 cell size :
        i : 0.000343506 .. 0.000343506
        j : 8.39208e-05 .. 8.39208e-05
        k : 0.000278959 .. 0.000278959

    Block 2286 cell size :
        i : 0.00031712 .. 0.00031712
        j : 8.32983e-05 .. 8.32983e-05
        k : 0.000278839 .. 0.000278839

    Block 2287 cell size :
        i : 0.00031712 .. 0.00031712
        j : 8.27317e-05 .. 8.27317e-05
        k : 0.000278734 .. 0.000278734

    Block 2288 cell size :
        i : 0.000253695 .. 0.000253695
        j : 0.000132 .. 0.000132
        k : 0.000278724 .. 0.000278724

    Block 2289 cell size :
        i : 0.000274805 .. 0.000274805
        j : 0.000132372 .. 0.000132372
        k : 0.000278759 .. 0.000278759

    Block 2290 cell size :
        i : 0.000253696 .. 0.000253696
        j : 0.000133362 .. 0.000133362
        k : 0.000278849 .. 0.000278849

    Block 2291 cell size :
        i : 0.000274804 .. 0.000274804
        j : 0.000134271 .. 0.000134271
        k : 0.000278939 .. 0.000278939

    Block 2292 cell size :
        i : 0.000253697 .. 0.000253697
        j : 0.000134666 .. 0.000134666
        k : 0.000278974 .. 0.000278974

    Block 2293 cell size :
        i : 0.000274804 .. 0.000274804
        j : 0.000134272 .. 0.000134272
        k : 0.000278934 .. 0.000278934

    Block 2294 cell size :
        i : 0.000253697 .. 0.000253697
        j : 0.000133275 .. 0.000133275
        k : 0.000278844 .. 0.000278844

    Block 2295 cell size :
        i : 0.000253695 .. 0.000253695
        j : 0.000132372 .. 0.000132372
        k : 0.000278754 .. 0.000278754

    Block 2296 cell size :
        i : 0.000148664 .. 0.000148664
        j : 0.000198 .. 0.000198
        k : 0.000278769 .. 0.000278769

    Block 2297 cell size :
        i : 0.000148664 .. 0.000148664
        j : 0.000200042 .. 0.000200042
        k : 0.000278844 .. 0.000278844

    Block 2298 cell size :
        i : 0.000148665 .. 0.000148665
        j : 0.000202 .. 0.000202
        k : 0.000278924 .. 0.000278924

    Block 2299 cell size :
        i : 0.000148665 .. 0.000148665
        j : 0.000199915 .. 0.000199915
        k : 0.000278844 .. 0.000278844

    Block 2300 cell size :
        i : 0.00031712 .. 0.00031712
        j : 8.25e-05 .. 8.25e-05
        k : 0.000278739 .. 0.000278739

    Block 2301 cell size :
        i : 0.000343506 .. 0.000343506
        j : 8.27315e-05 .. 8.27315e-05
        k : 0.000278764 .. 0.000278764

    Block 2302 cell size :
        i : 0.00031712 .. 0.00031712
        j : 8.33507e-05 .. 8.33507e-05
        k : 0.000278849 .. 0.000278849

    Block 2303 cell size :
        i : 0.000343505 .. 0.000343505
        j : 8.39198e-05 .. 8.39198e-05
        k : 0.000278924 .. 0.000278924

    Block 2304 cell size :
        i : 0.00031712 .. 0.00031712
        j : 8.41649e-05 .. 8.41649e-05
        k : 0.000278959 .. 0.000278959

    Block 2305 cell size :
        i : 0.000343506 .. 0.000343506
        j : 8.39208e-05 .. 8.39208e-05
        k : 0.000278924 .. 0.000278924

    Block 2306 cell size :
        i : 0.000317119 .. 0.000317119
        j : 8.32983e-05 .. 8.32983e-05
        k : 0.000278844 .. 0.000278844

    Block 2307 cell size :
        i : 0.00031712 .. 0.00031712
        j : 8.27317e-05 .. 8.27317e-05
        k : 0.000278769 .. 0.000278769

    Block 2308 cell size :
        i : 0.000253695 .. 0.000253695
        j : 0.000132 .. 0.000132
        k : 0.000278754 .. 0.000278754

    Block 2309 cell size :
        i : 0.000274805 .. 0.000274805
        j : 0.000132371 .. 0.000132371
        k : 0.000278779 .. 0.000278779

    Block 2310 cell size :
        i : 0.000253695 .. 0.000253695
        j : 0.000133361 .. 0.000133361
        k : 0.000278849 .. 0.000278849

    Block 2311 cell size :
        i : 0.000274806 .. 0.000274806
        j : 0.000134273 .. 0.000134273
        k : 0.000278909 .. 0.000278909

    Block 2312 cell size :
        i : 0.000253695 .. 0.000253695
        j : 0.000134666 .. 0.000134666
        k : 0.000278934 .. 0.000278934

    Block 2313 cell size :
        i : 0.000274805 .. 0.000274805
        j : 0.000134271 .. 0.000134271
        k : 0.000278909 .. 0.000278909

    Block 2314 cell size :
        i : 0.000253696 .. 0.000253696
        j : 0.000133277 .. 0.000133277
        k : 0.000278844 .. 0.000278844

    Block 2315 cell size :
        i : 0.000253695 .. 0.000253695
        j : 0.000132371 .. 0.000132371
        k : 0.000278784 .. 0.000278784

    Block 2316 cell size :
        i : 0.000148666 .. 0.000148666
        j : 0.000198 .. 0.000198
        k : 0.000278794 .. 0.000278794

    Block 2317 cell size :
        i : 0.000148665 .. 0.000148665
        j : 0.000200042 .. 0.000200042
        k : 0.000278849 .. 0.000278849

    Block 2318 cell size :
        i : 0.000148665 .. 0.000148665
        j : 0.000202 .. 0.000202
        k : 0.000278899 .. 0.000278899

    Block 2319 cell size :
        i : 0.000148664 .. 0.000148664
        j : 0.000199915 .. 0.000199915
        k : 0.000278844 .. 0.000278844


There are no merge patch pairs

Writing polyMesh with 0 cellZones
----------------
Mesh Information
----------------
  boundingBox: (-0.0144946 -0.0146133 -0.00245) (0.0144975 0.0144908 0.0125357)
  nPoints: 173585
  nCells: 167040
  nFaces: 507408
  nInternalFaces: 494832
----------------
Patches
----------------
  patch 0 (start: 494832 size: 720) name: outlet
  patch 1 (start: 495552 size: 11136) name: wall
  patch 2 (start: 506688 size: 720) name: inlet

End

