/*---------------------------------------------------------------------------*\
| =========                 |                                                 |
| \\      /  F ield         | OpenFOAM: The Open Source CFD Toolbox           |
|  \\    /   O peration     | Version:  2012                                  |
|   \\  /    A nd           | Website:  www.openfoam.com                      |
|    \\/     M anipulation  |                                                 |
\*---------------------------------------------------------------------------*/
Build  : _269d0ffd5c-20210619 OPENFOAM=2012 patch=210618
Arch   : "LSB;label=32;scalar=64"
Exec   : blockMesh
Date   : Jul 12 2022
Time   : 17:25:37
Host   : f485359ed3ce
PID    : 99220
I/O    : uncollated
Case   : /root/pulsed-reactor-optimisation/mesh_generation/coil_cylindrical
nProcs : 1
trapFpe: Floating point exception trapping enabled (FOAM_SIGFPE).
fileModificationChecking : Monitoring run-time modified files using timeStampMaster (fileModificationSkew 5, maxFileModificationPolls 20)
allowSystemOperations : Allowing user-supplied system call operations

// * * * * * * * * * * * * * * * * * * * * * * * * * * * * * * * * * * * * * //
Create time

Creating block mesh from "system/blockMeshDict"
Creating block edges
Creating block faces
Creating topology blocks
Creating topology patches

Creating block mesh topology

Check topology

	Basic statistics
		Number of internal faces : 3089
		Number of boundary faces : 962
		Number of defined boundary faces : 962
		Number of undefined boundary faces : 0
	Checking patch -> block consistency

Creating block offsets
Creating merge list (geometric search)...

Creating polyMesh from blockMesh
Creating patches
Creating cells
Creating points with scale 1
    Block 0 cell size :
        i : 0.167784 .. 0.167784
        j : 0.0523996 .. 0.0523996
        k : 0.384595 .. 0.384595

    Block 1 cell size :
        i : 0.167784 .. 0.167784
        j : 0.0529399 .. 0.0529399
        k : 0.465946 .. 0.465946

    Block 2 cell size :
        i : 0.167784 .. 0.167784
        j : 0.0534579 .. 0.0534579
        k : 0.376639 .. 0.376639

    Block 3 cell size :
        i : 0.161086 .. 0.161086
        j : 0.0529063 .. 0.0529063
        k : 0.305455 .. 0.305455

    Block 4 cell size :
        i : 0.0754442 .. 0.0754442
        j : 0.0730502 .. 0.0730502
        k : 0.343232 .. 0.343232

    Block 5 cell size :
        i : 0.172427 .. 0.172427
        j : 0.0538494 .. 0.0538494
        k : 0.382969 .. 0.382969

    Block 6 cell size :
        i : 0.172427 .. 0.172427
        j : 0.0544047 .. 0.0544047
        k : 0.47046 .. 0.47046

    Block 7 cell size :
        i : 0.172427 .. 0.172427
        j : 0.054937 .. 0.054937
        k : 0.382484 .. 0.382484

    Block 8 cell size :
        i : 0.165543 .. 0.165543
        j : 0.0543701 .. 0.0543701
        k : 0.305187 .. 0.305187

    Block 9 cell size :
        i : 0.0775316 .. 0.0775316
        j : 0.0750714 .. 0.0750714
        k : 0.342751 .. 0.342751

    Block 10 cell size :
        i : 0.177069 .. 0.177069
        j : 0.0552992 .. 0.0552992
        k : 0.38081 .. 0.38081

    Block 11 cell size :
        i : 0.177069 .. 0.177069
        j : 0.0558694 .. 0.0558694
        k : 0.474474 .. 0.474474

    Block 12 cell size :
        i : 0.177069 .. 0.177069
        j : 0.056416 .. 0.056416
        k : 0.387705 .. 0.387705

    Block 13 cell size :
        i : 0.17 .. 0.17
        j : 0.055834 .. 0.055834
        k : 0.304105 .. 0.304105

    Block 14 cell size :
        i : 0.079619 .. 0.079619
        j : 0.0770925 .. 0.0770925
        k : 0.342617 .. 0.342617

    Block 15 cell size :
        i : 0.181711 .. 0.181711
        j : 0.056749 .. 0.056749
        k : 0.378466 .. 0.378466

    Block 16 cell size :
        i : 0.181711 .. 0.181711
        j : 0.0573341 .. 0.0573341
        k : 0.478231 .. 0.478231

    Block 17 cell size :
        i : 0.181711 .. 0.181711
        j : 0.0578951 .. 0.0578951
        k : 0.392414 .. 0.392414

    Block 18 cell size :
        i : 0.174457 .. 0.174457
        j : 0.0572978 .. 0.0572978
        k : 0.30247 .. 0.30247

    Block 19 cell size :
        i : 0.0817064 .. 0.0817064
        j : 0.0791137 .. 0.0791137
        k : 0.342965 .. 0.342965

    Block 20 cell size :
        i : 0.186353 .. 0.186353
        j : 0.0581987 .. 0.0581987
        k : 0.376319 .. 0.376319

    Block 21 cell size :
        i : 0.186353 .. 0.186353
        j : 0.0587989 .. 0.0587989
        k : 0.482028 .. 0.482028

    Block 22 cell size :
        i : 0.186353 .. 0.186353
        j : 0.0593742 .. 0.0593742
        k : 0.3968 .. 0.3968

    Block 23 cell size :
        i : 0.178914 .. 0.178914
        j : 0.0587616 .. 0.0587616
        k : 0.300603 .. 0.300603

    Block 24 cell size :
        i : 0.0837937 .. 0.0837937
        j : 0.0811348 .. 0.0811348
        k : 0.343929 .. 0.343929

    Block 25 cell size :
        i : 0.190996 .. 0.190996
        j : 0.0596485 .. 0.0596485
        k : 0.37471 .. 0.37471

    Block 26 cell size :
        i : 0.190996 .. 0.190996
        j : 0.0602636 .. 0.0602636
        k : 0.486144 .. 0.486144

    Block 27 cell size :
        i : 0.190996 .. 0.190996
        j : 0.0608533 .. 0.0608533
        k : 0.401064 .. 0.401064

    Block 28 cell size :
        i : 0.183371 .. 0.183371
        j : 0.0602254 .. 0.0602254
        k : 0.298808 .. 0.298808

    Block 29 cell size :
        i : 0.0858811 .. 0.0858811
        j : 0.083156 .. 0.083156
        k : 0.345612 .. 0.345612

    Block 30 cell size :
        i : 0.195638 .. 0.195638
        j : 0.0610983 .. 0.0610983
        k : 0.373891 .. 0.373891

    Block 31 cell size :
        i : 0.195638 .. 0.195638
        j : 0.0617284 .. 0.0617284
        k : 0.490801 .. 0.490801

    Block 32 cell size :
        i : 0.195638 .. 0.195638
        j : 0.0623323 .. 0.0623323
        k : 0.405378 .. 0.405378

    Block 33 cell size :
        i : 0.187828 .. 0.187828
        j : 0.0616892 .. 0.0616892
        k : 0.297325 .. 0.297325

    Block 34 cell size :
        i : 0.0879685 .. 0.0879685
        j : 0.0851771 .. 0.0851771
        k : 0.348081 .. 0.348081

    Block 35 cell size :
        i : 0.20028 .. 0.20028
        j : 0.0625481 .. 0.0625481
        k : 0.374024 .. 0.374024

    Block 36 cell size :
        i : 0.20028 .. 0.20028
        j : 0.0631931 .. 0.0631931
        k : 0.496145 .. 0.496145

    Block 37 cell size :
        i : 0.20028 .. 0.20028
        j : 0.0638114 .. 0.0638114
        k : 0.409871 .. 0.409871

    Block 38 cell size :
        i : 0.192285 .. 0.192285
        j : 0.063153 .. 0.063153
        k : 0.296317 .. 0.296317

    Block 39 cell size :
        i : 0.0900559 .. 0.0900559
        j : 0.0871983 .. 0.0871983
        k : 0.351361 .. 0.351361

    Block 40 cell size :
        i : 0.204922 .. 0.204922
        j : 0.0639979 .. 0.0639979
        k : 0.375185 .. 0.375185

    Block 41 cell size :
        i : 0.204922 .. 0.204922
        j : 0.0646578 .. 0.0646578
        k : 0.502258 .. 0.502258

    Block 42 cell size :
        i : 0.204922 .. 0.204922
        j : 0.0652905 .. 0.0652905
        k : 0.414631 .. 0.414631

    Block 43 cell size :
        i : 0.196742 .. 0.196742
        j : 0.0646168 .. 0.0646168
        k : 0.295881 .. 0.295881

    Block 44 cell size :
        i : 0.0921433 .. 0.0921433
        j : 0.0892194 .. 0.0892194
        k : 0.355448 .. 0.355448

    Block 45 cell size :
        i : 0.209565 .. 0.209565
        j : 0.0654477 .. 0.0654477
        k : 0.377389 .. 0.377389

    Block 46 cell size :
        i : 0.209565 .. 0.209565
        j : 0.0661226 .. 0.0661226
        k : 0.509169 .. 0.509169

    Block 47 cell size :
        i : 0.209565 .. 0.209565
        j : 0.0667695 .. 0.0667695
        k : 0.419712 .. 0.419712

    Block 48 cell size :
        i : 0.201199 .. 0.201199
        j : 0.0660806 .. 0.0660806
        k : 0.29606 .. 0.29606

    Block 49 cell size :
        i : 0.0942307 .. 0.0942307
        j : 0.0912406 .. 0.0912406
        k : 0.360315 .. 0.360315

    Block 50 cell size :
        i : 0.214207 .. 0.214207
        j : 0.0668975 .. 0.0668975
        k : 0.380609 .. 0.380609

    Block 51 cell size :
        i : 0.214207 .. 0.214207
        j : 0.0675873 .. 0.0675873
        k : 0.516867 .. 0.516867

    Block 52 cell size :
        i : 0.214207 .. 0.214207
        j : 0.0682486 .. 0.0682486
        k : 0.425143 .. 0.425143

    Block 53 cell size :
        i : 0.205656 .. 0.205656
        j : 0.0675444 .. 0.0675444
        k : 0.296862 .. 0.296862

    Block 54 cell size :
        i : 0.0963181 .. 0.0963181
        j : 0.0932617 .. 0.0932617
        k : 0.36592 .. 0.36592

    Block 55 cell size :
        i : 0.218849 .. 0.218849
        j : 0.0683473 .. 0.0683473
        k : 0.38479 .. 0.38479

    Block 56 cell size :
        i : 0.218849 .. 0.218849
        j : 0.0690521 .. 0.0690521
        k : 0.525323 .. 0.525323

    Block 57 cell size :
        i : 0.218849 .. 0.218849
        j : 0.0697277 .. 0.0697277
        k : 0.43094 .. 0.43094

    Block 58 cell size :
        i : 0.210113 .. 0.210113
        j : 0.0690083 .. 0.0690083
        k : 0.298277 .. 0.298277

    Block 59 cell size :
        i : 0.0984055 .. 0.0984055
        j : 0.0952829 .. 0.0952829
        k : 0.372216 .. 0.372216

    Block 60 cell size :
        i : 0.223492 .. 0.223492
        j : 0.0697971 .. 0.0697971
        k : 0.389865 .. 0.389865

    Block 61 cell size :
        i : 0.223492 .. 0.223492
        j : 0.0705168 .. 0.0705168
        k : 0.53449 .. 0.53449

    Block 62 cell size :
        i : 0.223492 .. 0.223492
        j : 0.0712068 .. 0.0712068
        k : 0.437106 .. 0.437106

    Block 63 cell size :
        i : 0.21457 .. 0.21457
        j : 0.0704721 .. 0.0704721
        k : 0.30028 .. 0.30028

    Block 64 cell size :
        i : 0.100493 .. 0.100493
        j : 0.097304 .. 0.097304
        k : 0.379151 .. 0.379151

    Block 65 cell size :
        i : 0.228134 .. 0.228134
        j : 0.0712469 .. 0.0712469
        k : 0.395762 .. 0.395762

    Block 66 cell size :
        i : 0.228134 .. 0.228134
        j : 0.0719815 .. 0.0719815
        k : 0.544318 .. 0.544318

    Block 67 cell size :
        i : 0.228134 .. 0.228134
        j : 0.0726858 .. 0.0726858
        k : 0.44364 .. 0.44364

    Block 68 cell size :
        i : 0.219026 .. 0.219026
        j : 0.0719359 .. 0.0719359
        k : 0.30284 .. 0.30284

    Block 69 cell size :
        i : 0.10258 .. 0.10258
        j : 0.0993252 .. 0.0993252
        k : 0.386674 .. 0.386674

    Block 70 cell size :
        i : 0.232776 .. 0.232776
        j : 0.0726967 .. 0.0726967
        k : 0.402408 .. 0.402408

    Block 71 cell size :
        i : 0.232776 .. 0.232776
        j : 0.0734463 .. 0.0734463
        k : 0.554755 .. 0.554755

    Block 72 cell size :
        i : 0.232776 .. 0.232776
        j : 0.0741649 .. 0.0741649
        k : 0.450535 .. 0.450535

    Block 73 cell size :
        i : 0.223483 .. 0.223483
        j : 0.0733997 .. 0.0733997
        k : 0.305926 .. 0.305926

    Block 74 cell size :
        i : 0.104668 .. 0.104668
        j : 0.101346 .. 0.101346
        k : 0.394737 .. 0.394737

    Block 75 cell size :
        i : 0.237418 .. 0.237418
        j : 0.0741464 .. 0.0741464
        k : 0.409734 .. 0.409734

    Block 76 cell size :
        i : 0.237418 .. 0.237418
        j : 0.074911 .. 0.074911
        k : 0.56575 .. 0.56575

    Block 77 cell size :
        i : 0.237418 .. 0.237418
        j : 0.075644 .. 0.075644
        k : 0.457784 .. 0.457784

    Block 78 cell size :
        i : 0.22794 .. 0.22794
        j : 0.0748635 .. 0.0748635
        k : 0.309506 .. 0.309506

    Block 79 cell size :
        i : 0.106755 .. 0.106755
        j : 0.103367 .. 0.103367
        k : 0.403293 .. 0.403293

    Block 80 cell size :
        i : 0.242061 .. 0.242061
        j : 0.0755962 .. 0.0755962
        k : 0.417676 .. 0.417676

    Block 81 cell size :
        i : 0.242061 .. 0.242061
        j : 0.0763758 .. 0.0763758
        k : 0.577254 .. 0.577254

    Block 82 cell size :
        i : 0.242061 .. 0.242061
        j : 0.0771231 .. 0.0771231
        k : 0.465376 .. 0.465376

    Block 83 cell size :
        i : 0.232397 .. 0.232397
        j : 0.0763273 .. 0.0763273
        k : 0.313551 .. 0.313551

    Block 84 cell size :
        i : 0.108842 .. 0.108842
        j : 0.105389 .. 0.105389
        k : 0.4123 .. 0.4123

    Block 85 cell size :
        i : 0.246703 .. 0.246703
        j : 0.077046 .. 0.077046
        k : 0.426172 .. 0.426172

    Block 86 cell size :
        i : 0.246703 .. 0.246703
        j : 0.0778405 .. 0.0778405
        k : 0.589222 .. 0.589222

    Block 87 cell size :
        i : 0.246703 .. 0.246703
        j : 0.0786021 .. 0.0786021
        k : 0.473301 .. 0.473301

    Block 88 cell size :
        i : 0.236854 .. 0.236854
        j : 0.0777911 .. 0.0777911
        k : 0.31803 .. 0.31803

    Block 89 cell size :
        i : 0.11093 .. 0.11093
        j : 0.10741 .. 0.10741
        k : 0.42172 .. 0.42172

    Block 90 cell size :
        i : 0.251345 .. 0.251345
        j : 0.0784958 .. 0.0784958
        k : 0.435171 .. 0.435171

    Block 91 cell size :
        i : 0.251345 .. 0.251345
        j : 0.0793052 .. 0.0793052
        k : 0.601613 .. 0.601613

    Block 92 cell size :
        i : 0.251345 .. 0.251345
        j : 0.0800812 .. 0.0800812
        k : 0.481548 .. 0.481548

    Block 93 cell size :
        i : 0.241311 .. 0.241311
        j : 0.0792549 .. 0.0792549
        k : 0.322919 .. 0.322919

    Block 94 cell size :
        i : 0.113017 .. 0.113017
        j : 0.109431 .. 0.109431
        k : 0.431516 .. 0.431516

    Block 95 cell size :
        i : 0.255987 .. 0.255987
        j : 0.0799456 .. 0.0799456
        k : 0.444623 .. 0.444623

    Block 96 cell size :
        i : 0.255987 .. 0.255987
        j : 0.08077 .. 0.08077
        k : 0.61439 .. 0.61439

    Block 97 cell size :
        i : 0.255987 .. 0.255987
        j : 0.0815603 .. 0.0815603
        k : 0.490103 .. 0.490103

    Block 98 cell size :
        i : 0.245768 .. 0.245768
        j : 0.0807187 .. 0.0807187
        k : 0.32819 .. 0.32819

    Block 99 cell size :
        i : 0.115105 .. 0.115105
        j : 0.111452 .. 0.111452
        k : 0.441656 .. 0.441656

    Block 100 cell size :
        i : 0.26063 .. 0.26063
        j : 0.0813954 .. 0.0813954
        k : 0.454485 .. 0.454485

    Block 101 cell size :
        i : 0.26063 .. 0.26063
        j : 0.0822347 .. 0.0822347
        k : 0.627519 .. 0.627519

    Block 102 cell size :
        i : 0.26063 .. 0.26063
        j : 0.0830393 .. 0.0830393
        k : 0.498955 .. 0.498955

    Block 103 cell size :
        i : 0.250225 .. 0.250225
        j : 0.0821826 .. 0.0821826
        k : 0.333821 .. 0.333821

    Block 104 cell size :
        i : 0.117192 .. 0.117192
        j : 0.113473 .. 0.113473
        k : 0.452112 .. 0.452112

    Block 105 cell size :
        i : 0.265272 .. 0.265272
        j : 0.0828452 .. 0.0828452
        k : 0.464718 .. 0.464718

    Block 106 cell size :
        i : 0.265272 .. 0.265272
        j : 0.0836995 .. 0.0836995
        k : 0.64097 .. 0.64097

    Block 107 cell size :
        i : 0.265272 .. 0.265272
        j : 0.0845184 .. 0.0845184
        k : 0.508092 .. 0.508092

    Block 108 cell size :
        i : 0.254682 .. 0.254682
        j : 0.0836464 .. 0.0836464
        k : 0.33979 .. 0.33979

    Block 109 cell size :
        i : 0.119279 .. 0.119279
        j : 0.115494 .. 0.115494
        k : 0.462857 .. 0.462857

    Block 110 cell size :
        i : 0.269914 .. 0.269914
        j : 0.084295 .. 0.084295
        k : 0.475288 .. 0.475288

    Block 111 cell size :
        i : 0.269914 .. 0.269914
        j : 0.0851642 .. 0.0851642
        k : 0.654715 .. 0.654715

    Block 112 cell size :
        i : 0.269914 .. 0.269914
        j : 0.0859975 .. 0.0859975
        k : 0.517501 .. 0.517501

    Block 113 cell size :
        i : 0.259139 .. 0.259139
        j : 0.0851102 .. 0.0851102
        k : 0.346077 .. 0.346077

    Block 114 cell size :
        i : 0.121367 .. 0.121367
        j : 0.117516 .. 0.117516
        k : 0.473867 .. 0.473867

    Block 115 cell size :
        i : 0.274556 .. 0.274556
        j : 0.0857448 .. 0.0857448
        k : 0.486163 .. 0.486163

    Block 116 cell size :
        i : 0.274556 .. 0.274556
        j : 0.0866289 .. 0.0866289
        k : 0.66873 .. 0.66873

    Block 117 cell size :
        i : 0.274556 .. 0.274556
        j : 0.0874766 .. 0.0874766
        k : 0.52717 .. 0.52717

    Block 118 cell size :
        i : 0.263596 .. 0.263596
        j : 0.086574 .. 0.086574
        k : 0.352662 .. 0.352662

    Block 119 cell size :
        i : 0.123454 .. 0.123454
        j : 0.119537 .. 0.119537
        k : 0.485121 .. 0.485121

    Block 120 cell size :
        i : 0.279199 .. 0.279199
        j : 0.0871946 .. 0.0871946
        k : 0.497316 .. 0.497316

    Block 121 cell size :
        i : 0.279199 .. 0.279199
        j : 0.0880937 .. 0.0880937
        k : 0.682992 .. 0.682992

    Block 122 cell size :
        i : 0.279199 .. 0.279199
        j : 0.0889556 .. 0.0889556
        k : 0.537088 .. 0.537088

    Block 123 cell size :
        i : 0.268053 .. 0.268053
        j : 0.0880378 .. 0.0880378
        k : 0.359528 .. 0.359528

    Block 124 cell size :
        i : 0.125542 .. 0.125542
        j : 0.121558 .. 0.121558
        k : 0.4966 .. 0.4966

    Block 125 cell size :
        i : 0.283841 .. 0.283841
        j : 0.0886444 .. 0.0886444
        k : 0.508723 .. 0.508723

    Block 126 cell size :
        i : 0.283841 .. 0.283841
        j : 0.0895584 .. 0.0895584
        k : 0.697483 .. 0.697483

    Block 127 cell size :
        i : 0.283841 .. 0.283841
        j : 0.0904347 .. 0.0904347
        k : 0.547241 .. 0.547241

    Block 128 cell size :
        i : 0.27251 .. 0.27251
        j : 0.0895016 .. 0.0895016
        k : 0.366658 .. 0.366658

    Block 129 cell size :
        i : 0.127629 .. 0.127629
        j : 0.123579 .. 0.123579
        k : 0.508286 .. 0.508286

    Block 130 cell size :
        i : 0.288483 .. 0.288483
        j : 0.0900941 .. 0.0900941
        k : 0.520362 .. 0.520362

    Block 131 cell size :
        i : 0.288483 .. 0.288483
        j : 0.0910232 .. 0.0910232
        k : 0.712183 .. 0.712183

    Block 132 cell size :
        i : 0.288483 .. 0.288483
        j : 0.0919138 .. 0.0919138
        k : 0.557619 .. 0.557619

    Block 133 cell size :
        i : 0.276967 .. 0.276967
        j : 0.0909654 .. 0.0909654
        k : 0.374035 .. 0.374035

    Block 134 cell size :
        i : 0.129716 .. 0.129716
        j : 0.1256 .. 0.1256
        k : 0.520164 .. 0.520164

    Block 135 cell size :
        i : 0.293125 .. 0.293125
        j : 0.0915439 .. 0.0915439
        k : 0.532213 .. 0.532213

    Block 136 cell size :
        i : 0.293125 .. 0.293125
        j : 0.0924879 .. 0.0924879
        k : 0.727077 .. 0.727077

    Block 137 cell size :
        i : 0.293125 .. 0.293125
        j : 0.0933928 .. 0.0933928
        k : 0.568211 .. 0.568211

    Block 138 cell size :
        i : 0.281424 .. 0.281424
        j : 0.0924292 .. 0.0924292
        k : 0.381647 .. 0.381647

    Block 139 cell size :
        i : 0.131804 .. 0.131804
        j : 0.127621 .. 0.127621
        k : 0.532219 .. 0.532219

    Block 140 cell size :
        i : 0.297768 .. 0.297768
        j : 0.0929937 .. 0.0929937
        k : 0.544258 .. 0.544258

    Block 141 cell size :
        i : 0.297768 .. 0.297768
        j : 0.0939527 .. 0.0939527
        k : 0.74215 .. 0.74215

    Block 142 cell size :
        i : 0.297768 .. 0.297768
        j : 0.0948719 .. 0.0948719
        k : 0.579006 .. 0.579006

    Block 143 cell size :
        i : 0.28588 .. 0.28588
        j : 0.093893 .. 0.093893
        k : 0.389478 .. 0.389478

    Block 144 cell size :
        i : 0.133891 .. 0.133891
        j : 0.129642 .. 0.129642
        k : 0.544438 .. 0.544438

    Block 145 cell size :
        i : 0.30241 .. 0.30241
        j : 0.0944435 .. 0.0944435
        k : 0.556481 .. 0.556481

    Block 146 cell size :
        i : 0.30241 .. 0.30241
        j : 0.0954174 .. 0.0954174
        k : 0.757388 .. 0.757388

    Block 147 cell size :
        i : 0.30241 .. 0.30241
        j : 0.096351 .. 0.096351
        k : 0.589993 .. 0.589993

    Block 148 cell size :
        i : 0.290337 .. 0.290337
        j : 0.0953569 .. 0.0953569
        k : 0.397517 .. 0.397517

    Block 149 cell size :
        i : 0.135978 .. 0.135978
        j : 0.131664 .. 0.131664
        k : 0.556809 .. 0.556809

    Block 150 cell size :
        i : 0.307052 .. 0.307052
        j : 0.0958933 .. 0.0958933
        k : 0.56887 .. 0.56887

    Block 151 cell size :
        i : 0.307052 .. 0.307052
        j : 0.0968821 .. 0.0968821
        k : 0.772781 .. 0.772781

    Block 152 cell size :
        i : 0.307052 .. 0.307052
        j : 0.0978301 .. 0.0978301
        k : 0.601163 .. 0.601163

    Block 153 cell size :
        i : 0.294794 .. 0.294794
        j : 0.0968207 .. 0.0968207
        k : 0.405749 .. 0.405749

    Block 154 cell size :
        i : 0.138066 .. 0.138066
        j : 0.133685 .. 0.133685
        k : 0.569322 .. 0.569322

    Block 155 cell size :
        i : 0.311694 .. 0.311694
        j : 0.0973431 .. 0.0973431
        k : 0.58141 .. 0.58141

    Block 156 cell size :
        i : 0.311694 .. 0.311694
        j : 0.0983469 .. 0.0983469
        k : 0.788316 .. 0.788316

    Block 157 cell size :
        i : 0.311694 .. 0.311694
        j : 0.0993091 .. 0.0993091
        k : 0.612505 .. 0.612505

    Block 158 cell size :
        i : 0.299251 .. 0.299251
        j : 0.0982845 .. 0.0982845
        k : 0.414166 .. 0.414166

    Block 159 cell size :
        i : 0.140153 .. 0.140153
        j : 0.135706 .. 0.135706
        k : 0.581967 .. 0.581967

    Block 160 cell size :
        i : 0.316337 .. 0.316337
        j : 0.0987929 .. 0.0987929
        k : 0.59409 .. 0.59409

    Block 161 cell size :
        i : 0.316337 .. 0.316337
        j : 0.0998116 .. 0.0998116
        k : 0.803984 .. 0.803984

    Block 162 cell size :
        i : 0.316337 .. 0.316337
        j : 0.100788 .. 0.100788
        k : 0.624012 .. 0.624012

    Block 163 cell size :
        i : 0.303708 .. 0.303708
        j : 0.0997483 .. 0.0997483
        k : 0.422755 .. 0.422755

    Block 164 cell size :
        i : 0.142241 .. 0.142241
        j : 0.137727 .. 0.137727
        k : 0.594734 .. 0.594734

    Block 165 cell size :
        i : 0.311031 .. 0.311031
        j : 0.097136 .. 0.097136
        k : 0.24882 .. 0.24882

    Block 166 cell size :
        i : 0.311031 .. 0.311031
        j : 0.0981376 .. 0.0981376
        k : 0.923249 .. 0.923249

    Block 167 cell size :
        i : 0.311031 .. 0.311031
        j : 0.0990978 .. 0.0990978
        k : 0.949442 .. 0.949442

    Block 168 cell size :
        i : 0.298615 .. 0.298615
        j : 0.0980754 .. 0.0980754
        k : 0.218342 .. 0.218342

    Block 169 cell size :
        i : 0.139855 .. 0.139855
        j : 0.135417 .. 0.135417
        k : 0.374498 .. 0.374498

    Block 170 cell size :
        i : 0.304068 .. 0.304068
        j : 0.0949613 .. 0.0949613
        k : 0.488986 .. 0.488986

    Block 171 cell size :
        i : 0.304068 .. 0.304068
        j : 0.0959405 .. 0.0959405
        k : 0.790953 .. 0.790953

    Block 172 cell size :
        i : 0.304068 .. 0.304068
        j : 0.0968792 .. 0.0968792
        k : 0.631677 .. 0.631677

    Block 173 cell size :
        i : 0.291929 .. 0.291929
        j : 0.0958796 .. 0.0958796
        k : 0.332758 .. 0.332758

    Block 174 cell size :
        i : 0.136724 .. 0.136724
        j : 0.132385 .. 0.132385
        k : 0.521165 .. 0.521165

    Block 175 cell size :
        i : 0.297104 .. 0.297104
        j : 0.0927866 .. 0.0927866
        k : 0.564893 .. 0.564893

    Block 176 cell size :
        i : 0.297104 .. 0.297104
        j : 0.0937434 .. 0.0937434
        k : 0.76968 .. 0.76968

    Block 177 cell size :
        i : 0.297104 .. 0.297104
        j : 0.0946606 .. 0.0946606
        k : 0.570494 .. 0.570494

    Block 178 cell size :
        i : 0.285244 .. 0.285244
        j : 0.0936839 .. 0.0936839
        k : 0.371544 .. 0.371544

    Block 179 cell size :
        i : 0.133593 .. 0.133593
        j : 0.129354 .. 0.129354
        k : 0.564668 .. 0.564668

    Block 180 cell size :
        i : 0.290141 .. 0.290141
        j : 0.0906119 .. 0.0906119
        k : 0.574534 .. 0.574534

    Block 181 cell size :
        i : 0.290141 .. 0.290141
        j : 0.0915463 .. 0.0915463
        k : 0.774509 .. 0.774509

    Block 182 cell size :
        i : 0.290141 .. 0.290141
        j : 0.092442 .. 0.092442
        k : 0.579539 .. 0.579539

    Block 183 cell size :
        i : 0.278558 .. 0.278558
        j : 0.0914882 .. 0.0914882
        k : 0.385183 .. 0.385183

    Block 184 cell size :
        i : 0.130462 .. 0.130462
        j : 0.126322 .. 0.126322
        k : 0.574329 .. 0.574329

    Block 185 cell size :
        i : 0.283178 .. 0.283178
        j : 0.0884372 .. 0.0884372
        k : 0.584189 .. 0.584189

    Block 186 cell size :
        i : 0.283178 .. 0.283178
        j : 0.0893492 .. 0.0893492
        k : 0.779361 .. 0.779361

    Block 187 cell size :
        i : 0.283178 .. 0.283178
        j : 0.0902234 .. 0.0902234
        k : 0.588642 .. 0.588642

    Block 188 cell size :
        i : 0.271873 .. 0.271873
        j : 0.0892925 .. 0.0892925
        k : 0.398889 .. 0.398889

    Block 189 cell size :
        i : 0.127331 .. 0.127331
        j : 0.12329 .. 0.12329
        k : 0.583997 .. 0.583997

    Block 190 cell size :
        i : 0.276214 .. 0.276214
        j : 0.0862626 .. 0.0862626
        k : 0.593856 .. 0.593856

    Block 191 cell size :
        i : 0.276214 .. 0.276214
        j : 0.0871521 .. 0.0871521
        k : 0.784235 .. 0.784235

    Block 192 cell size :
        i : 0.276214 .. 0.276214
        j : 0.0880048 .. 0.0880048
        k : 0.597799 .. 0.597799

    Block 193 cell size :
        i : 0.265188 .. 0.265188
        j : 0.0870968 .. 0.0870968
        k : 0.412654 .. 0.412654

    Block 194 cell size :
        i : 0.1242 .. 0.1242
        j : 0.120259 .. 0.120259
        k : 0.593671 .. 0.593671

    Block 195 cell size :
        i : 0.269251 .. 0.269251
        j : 0.0840879 .. 0.0840879
        k : 0.603534 .. 0.603534

    Block 196 cell size :
        i : 0.269251 .. 0.269251
        j : 0.084955 .. 0.084955
        k : 0.78913 .. 0.78913

    Block 197 cell size :
        i : 0.269251 .. 0.269251
        j : 0.0857862 .. 0.0857862
        k : 0.607006 .. 0.607006

    Block 198 cell size :
        i : 0.258502 .. 0.258502
        j : 0.0849011 .. 0.0849011
        k : 0.426473 .. 0.426473

    Block 199 cell size :
        i : 0.121069 .. 0.121069
        j : 0.117227 .. 0.117227
        k : 0.603352 .. 0.603352

    Block 200 cell size :
        i : 0.262288 .. 0.262288
        j : 0.0819132 .. 0.0819132
        k : 0.613222 .. 0.613222

    Block 201 cell size :
        i : 0.262288 .. 0.262288
        j : 0.0827578 .. 0.0827578
        k : 0.794044 .. 0.794044

    Block 202 cell size :
        i : 0.262288 .. 0.262288
        j : 0.0835676 .. 0.0835676
        k : 0.61626 .. 0.61626

    Block 203 cell size :
        i : 0.251817 .. 0.251817
        j : 0.0827053 .. 0.0827053
        k : 0.440339 .. 0.440339

    Block 204 cell size :
        i : 0.117937 .. 0.117937
        j : 0.114195 .. 0.114195
        k : 0.613039 .. 0.613039

    Block 205 cell size :
        i : 0.255324 .. 0.255324
        j : 0.0797385 .. 0.0797385
        k : 0.62292 .. 0.62292

    Block 206 cell size :
        i : 0.255324 .. 0.255324
        j : 0.0805607 .. 0.0805607
        k : 0.798977 .. 0.798977

    Block 207 cell size :
        i : 0.255324 .. 0.255324
        j : 0.081349 .. 0.081349
        k : 0.625558 .. 0.625558

    Block 208 cell size :
        i : 0.245131 .. 0.245131
        j : 0.0805096 .. 0.0805096
        k : 0.454248 .. 0.454248

    Block 209 cell size :
        i : 0.114806 .. 0.114806
        j : 0.111163 .. 0.111163
        k : 0.622732 .. 0.622732

    Block 210 cell size :
        i : 0.248361 .. 0.248361
        j : 0.0775638 .. 0.0775638
        k : 0.632627 .. 0.632627

    Block 211 cell size :
        i : 0.248361 .. 0.248361
        j : 0.0783636 .. 0.0783636
        k : 0.803926 .. 0.803926

    Block 212 cell size :
        i : 0.248361 .. 0.248361
        j : 0.0791304 .. 0.0791304
        k : 0.634897 .. 0.634897

    Block 213 cell size :
        i : 0.238446 .. 0.238446
        j : 0.0783139 .. 0.0783139
        k : 0.468198 .. 0.468198

    Block 214 cell size :
        i : 0.111675 .. 0.111675
        j : 0.108132 .. 0.108132
        k : 0.632432 .. 0.632432

    Block 215 cell size :
        i : 0.241397 .. 0.241397
        j : 0.0753891 .. 0.0753891
        k : 0.642343 .. 0.642343

    Block 216 cell size :
        i : 0.241397 .. 0.241397
        j : 0.0761665 .. 0.0761665
        k : 0.808893 .. 0.808893

    Block 217 cell size :
        i : 0.241397 .. 0.241397
        j : 0.0769118 .. 0.0769118
        k : 0.644274 .. 0.644274

    Block 218 cell size :
        i : 0.231761 .. 0.231761
        j : 0.0761182 .. 0.0761182
        k : 0.482184 .. 0.482184

    Block 219 cell size :
        i : 0.108544 .. 0.108544
        j : 0.1051 .. 0.1051
        k : 0.642138 .. 0.642138

    Block 220 cell size :
        i : 0.234434 .. 0.234434
        j : 0.0732144 .. 0.0732144
        k : 0.652068 .. 0.652068

    Block 221 cell size :
        i : 0.234434 .. 0.234434
        j : 0.0739694 .. 0.0739694
        k : 0.813875 .. 0.813875

    Block 222 cell size :
        i : 0.234434 .. 0.234434
        j : 0.0746931 .. 0.0746931
        k : 0.653689 .. 0.653689

    Block 223 cell size :
        i : 0.225075 .. 0.225075
        j : 0.0739225 .. 0.0739225
        k : 0.496205 .. 0.496205

    Block 224 cell size :
        i : 0.105413 .. 0.105413
        j : 0.102068 .. 0.102068
        k : 0.65185 .. 0.65185

    Block 225 cell size :
        i : 0.227471 .. 0.227471
        j : 0.0710397 .. 0.0710397
        k : 0.6618 .. 0.6618

    Block 226 cell size :
        i : 0.227471 .. 0.227471
        j : 0.0717723 .. 0.0717723
        k : 0.818872 .. 0.818872

    Block 227 cell size :
        i : 0.227471 .. 0.227471
        j : 0.0724745 .. 0.0724745
        k : 0.663138 .. 0.663138

    Block 228 cell size :
        i : 0.21839 .. 0.21839
        j : 0.0717268 .. 0.0717268
        k : 0.510257 .. 0.510257

    Block 229 cell size :
        i : 0.102282 .. 0.102282
        j : 0.0990364 .. 0.0990364
        k : 0.66157 .. 0.66157

    Block 230 cell size :
        i : 0.220507 .. 0.220507
        j : 0.0688651 .. 0.0688651
        k : 0.671541 .. 0.671541

    Block 231 cell size :
        i : 0.220507 .. 0.220507
        j : 0.0695752 .. 0.0695752
        k : 0.823884 .. 0.823884

    Block 232 cell size :
        i : 0.220507 .. 0.220507
        j : 0.0702559 .. 0.0702559
        k : 0.672621 .. 0.672621

    Block 233 cell size :
        i : 0.211704 .. 0.211704
        j : 0.069531 .. 0.069531
        k : 0.524338 .. 0.524338

    Block 234 cell size :
        i : 0.099151 .. 0.099151
        j : 0.0960047 .. 0.0960047
        k : 0.671296 .. 0.671296

    Block 235 cell size :
        i : 0.213544 .. 0.213544
        j : 0.0666904 .. 0.0666904
        k : 0.681291 .. 0.681291

    Block 236 cell size :
        i : 0.213544 .. 0.213544
        j : 0.0673781 .. 0.0673781
        k : 0.82891 .. 0.82891

    Block 237 cell size :
        i : 0.213544 .. 0.213544
        j : 0.0680373 .. 0.0680373
        k : 0.682135 .. 0.682135

    Block 238 cell size :
        i : 0.205019 .. 0.205019
        j : 0.0673353 .. 0.0673353
        k : 0.538447 .. 0.538447

    Block 239 cell size :
        i : 0.0960199 .. 0.0960199
        j : 0.092973 .. 0.092973
        k : 0.68103 .. 0.68103

    Block 240 cell size :
        i : 0.20658 .. 0.20658
        j : 0.0645157 .. 0.0645157
        k : 0.691049 .. 0.691049

    Block 241 cell size :
        i : 0.20658 .. 0.20658
        j : 0.065181 .. 0.065181
        k : 0.833951 .. 0.833951

    Block 242 cell size :
        i : 0.20658 .. 0.20658
        j : 0.0658187 .. 0.0658187
        k : 0.691679 .. 0.691679

    Block 243 cell size :
        i : 0.198334 .. 0.198334
        j : 0.0651396 .. 0.0651396
        k : 0.552583 .. 0.552583

    Block 244 cell size :
        i : 0.0928888 .. 0.0928888
        j : 0.0899413 .. 0.0899413
        k : 0.690772 .. 0.690772

    Block 245 cell size :
        i : 0.199617 .. 0.199617
        j : 0.062341 .. 0.062341
        k : 0.700815 .. 0.700815

    Block 246 cell size :
        i : 0.199617 .. 0.199617
        j : 0.0629838 .. 0.0629838
        k : 0.839005 .. 0.839005

    Block 247 cell size :
        i : 0.199617 .. 0.199617
        j : 0.0636001 .. 0.0636001
        k : 0.701252 .. 0.701252

    Block 248 cell size :
        i : 0.191648 .. 0.191648
        j : 0.0629439 .. 0.0629439
        k : 0.566743 .. 0.566743

    Block 249 cell size :
        i : 0.0897577 .. 0.0897577
        j : 0.0869095 .. 0.0869095
        k : 0.700521 .. 0.700521

    Block 250 cell size :
        i : 0.192654 .. 0.192654
        j : 0.0601663 .. 0.0601663
        k : 0.71059 .. 0.71059

    Block 251 cell size :
        i : 0.192654 .. 0.192654
        j : 0.0607867 .. 0.0607867
        k : 0.844073 .. 0.844073

    Block 252 cell size :
        i : 0.192654 .. 0.192654
        j : 0.0613815 .. 0.0613815
        k : 0.710853 .. 0.710853

    Block 253 cell size :
        i : 0.184963 .. 0.184963
        j : 0.0607482 .. 0.0607482
        k : 0.580927 .. 0.580927

    Block 254 cell size :
        i : 0.0866266 .. 0.0866266
        j : 0.0838778 .. 0.0838778
        k : 0.710278 .. 0.710278

    Block 255 cell size :
        i : 0.18569 .. 0.18569
        j : 0.0579916 .. 0.0579916
        k : 0.720373 .. 0.720373

    Block 256 cell size :
        i : 0.18569 .. 0.18569
        j : 0.0585896 .. 0.0585896
        k : 0.849154 .. 0.849154

    Block 257 cell size :
        i : 0.18569 .. 0.18569
        j : 0.0591629 .. 0.0591629
        k : 0.72048 .. 0.72048

    Block 258 cell size :
        i : 0.178277 .. 0.178277
        j : 0.0585525 .. 0.0585525
        k : 0.595134 .. 0.595134

    Block 259 cell size :
        i : 0.0834956 .. 0.0834956
        j : 0.0808461 .. 0.0808461
        k : 0.720044 .. 0.720044

    Block 260 cell size :
        i : 0.178727 .. 0.178727
        j : 0.0558169 .. 0.0558169
        k : 0.730165 .. 0.730165

    Block 261 cell size :
        i : 0.178727 .. 0.178727
        j : 0.0563925 .. 0.0563925
        k : 0.854249 .. 0.854249

    Block 262 cell size :
        i : 0.178727 .. 0.178727
        j : 0.0569443 .. 0.0569443
        k : 0.730133 .. 0.730133

    Block 263 cell size :
        i : 0.171592 .. 0.171592
        j : 0.0563567 .. 0.0563567
        k : 0.609363 .. 0.609363

    Block 264 cell size :
        i : 0.0803645 .. 0.0803645
        j : 0.0778143 .. 0.0778143
        k : 0.729818 .. 0.729818

    Block 265 cell size :
        i : 0.171764 .. 0.171764
        j : 0.0536423 .. 0.0536423
        k : 0.739966 .. 0.739966

    Block 266 cell size :
        i : 0.171764 .. 0.171764
        j : 0.0541954 .. 0.0541954
        k : 0.859356 .. 0.859356

    Block 267 cell size :
        i : 0.171764 .. 0.171764
        j : 0.0547257 .. 0.0547257
        k : 0.739811 .. 0.739811

    Block 268 cell size :
        i : 0.164907 .. 0.164907
        j : 0.054161 .. 0.054161
        k : 0.623612 .. 0.623612

    Block 269 cell size :
        i : 0.0772334 .. 0.0772334
        j : 0.0747826 .. 0.0747826
        k : 0.739602 .. 0.739602

    Block 270 cell size :
        i : 0.1648 .. 0.1648
        j : 0.0514676 .. 0.0514676
        k : 0.749776 .. 0.749776

    Block 271 cell size :
        i : 0.1648 .. 0.1648
        j : 0.0519983 .. 0.0519983
        k : 0.864477 .. 0.864477

    Block 272 cell size :
        i : 0.1648 .. 0.1648
        j : 0.0525071 .. 0.0525071
        k : 0.749512 .. 0.749512

    Block 273 cell size :
        i : 0.158221 .. 0.158221
        j : 0.0519653 .. 0.0519653
        k : 0.637882 .. 0.637882

    Block 274 cell size :
        i : 0.0741023 .. 0.0741023
        j : 0.0717509 .. 0.0717509
        k : 0.749394 .. 0.749394

    Block 275 cell size :
        i : 0.157837 .. 0.157837
        j : 0.0492929 .. 0.0492929
        k : 0.759595 .. 0.759595

    Block 276 cell size :
        i : 0.157837 .. 0.157837
        j : 0.0498012 .. 0.0498012
        k : 0.86961 .. 0.86961

    Block 277 cell size :
        i : 0.157837 .. 0.157837
        j : 0.0502885 .. 0.0502885
        k : 0.759237 .. 0.759237

    Block 278 cell size :
        i : 0.151536 .. 0.151536
        j : 0.0497696 .. 0.0497696
        k : 0.652171 .. 0.652171

    Block 279 cell size :
        i : 0.0709712 .. 0.0709712
        j : 0.0687192 .. 0.0687192
        k : 0.759195 .. 0.759195

    Block 280 cell size :
        i : 0.150873 .. 0.150873
        j : 0.0471182 .. 0.0471182
        k : 0.769424 .. 0.769424

    Block 281 cell size :
        i : 0.150873 .. 0.150873
        j : 0.0476041 .. 0.0476041
        k : 0.874757 .. 0.874757

    Block 282 cell size :
        i : 0.150873 .. 0.150873
        j : 0.0480698 .. 0.0480698
        k : 0.768984 .. 0.768984

    Block 283 cell size :
        i : 0.14485 .. 0.14485
        j : 0.0475739 .. 0.0475739
        k : 0.666478 .. 0.666478

    Block 284 cell size :
        i : 0.0678401 .. 0.0678401
        j : 0.0656874 .. 0.0656874
        k : 0.769005 .. 0.769005

    Block 285 cell size :
        i : 0.14391 .. 0.14391
        j : 0.0449435 .. 0.0449435
        k : 0.779261 .. 0.779261

    Block 286 cell size :
        i : 0.14391 .. 0.14391
        j : 0.045407 .. 0.045407
        k : 0.879915 .. 0.879915

    Block 287 cell size :
        i : 0.14391 .. 0.14391
        j : 0.0458512 .. 0.0458512
        k : 0.778753 .. 0.778753

    Block 288 cell size :
        i : 0.138165 .. 0.138165
        j : 0.0453782 .. 0.0453782
        k : 0.680803 .. 0.680803

    Block 289 cell size :
        i : 0.0647091 .. 0.0647091
        j : 0.0626557 .. 0.0626557
        k : 0.778825 .. 0.778825

    Block 290 cell size :
        i : 0.136947 .. 0.136947
        j : 0.0427688 .. 0.0427688
        k : 0.789107 .. 0.789107

    Block 291 cell size :
        i : 0.136947 .. 0.136947
        j : 0.0432099 .. 0.0432099
        k : 0.885087 .. 0.885087

    Block 292 cell size :
        i : 0.136947 .. 0.136947
        j : 0.0436326 .. 0.0436326
        k : 0.788542 .. 0.788542

    Block 293 cell size :
        i : 0.13148 .. 0.13148
        j : 0.0431824 .. 0.0431824
        k : 0.695145 .. 0.695145

    Block 294 cell size :
        i : 0.061578 .. 0.061578
        j : 0.059624 .. 0.059624
        k : 0.788654 .. 0.788654

    Block 295 cell size :
        i : 0.129983 .. 0.129983
        j : 0.0405941 .. 0.0405941
        k : 0.798962 .. 0.798962

    Block 296 cell size :
        i : 0.129983 .. 0.129983
        j : 0.0410127 .. 0.0410127
        k : 0.890271 .. 0.890271

    Block 297 cell size :
        i : 0.129983 .. 0.129983
        j : 0.041414 .. 0.041414
        k : 0.798351 .. 0.798351

    Block 298 cell size :
        i : 0.124794 .. 0.124794
        j : 0.0409867 .. 0.0409867
        k : 0.709504 .. 0.709504

    Block 299 cell size :
        i : 0.0584469 .. 0.0584469
        j : 0.0565923 .. 0.0565923
        k : 0.798492 .. 0.798492

    Block 300 cell size :
        i : 0.12302 .. 0.12302
        j : 0.0384195 .. 0.0384195
        k : 0.808826 .. 0.808826

    Block 301 cell size :
        i : 0.12302 .. 0.12302
        j : 0.0388156 .. 0.0388156
        k : 0.895466 .. 0.895466

    Block 302 cell size :
        i : 0.12302 .. 0.12302
        j : 0.0391954 .. 0.0391954
        k : 0.808179 .. 0.808179

    Block 303 cell size :
        i : 0.118109 .. 0.118109
        j : 0.038791 .. 0.038791
        k : 0.723878 .. 0.723878

    Block 304 cell size :
        i : 0.0553158 .. 0.0553158
        j : 0.0535605 .. 0.0535605
        k : 0.80834 .. 0.80834

    Block 305 cell size :
        i : 0.116056 .. 0.116056
        j : 0.0362448 .. 0.0362448
        k : 0.818698 .. 0.818698

    Block 306 cell size :
        i : 0.116056 .. 0.116056
        j : 0.0366185 .. 0.0366185
        k : 0.900674 .. 0.900674

    Block 307 cell size :
        i : 0.116056 .. 0.116056
        j : 0.0369768 .. 0.0369768
        k : 0.818026 .. 0.818026

    Block 308 cell size :
        i : 0.111423 .. 0.111423
        j : 0.0365953 .. 0.0365953
        k : 0.738267 .. 0.738267

    Block 309 cell size :
        i : 0.0521847 .. 0.0521847
        j : 0.0505288 .. 0.0505288
        k : 0.818196 .. 0.818196

    Block 310 cell size :
        i : 0.109093 .. 0.109093
        j : 0.0340701 .. 0.0340701
        k : 0.828579 .. 0.828579

    Block 311 cell size :
        i : 0.109093 .. 0.109093
        j : 0.0344214 .. 0.0344214
        k : 0.905893 .. 0.905893

    Block 312 cell size :
        i : 0.109093 .. 0.109093
        j : 0.0347582 .. 0.0347582
        k : 0.82789 .. 0.82789

    Block 313 cell size :
        i : 0.104738 .. 0.104738
        j : 0.0343996 .. 0.0343996
        k : 0.752671 .. 0.752671

    Block 314 cell size :
        i : 0.0490536 .. 0.0490536
        j : 0.0474971 .. 0.0474971
        k : 0.828061 .. 0.828061

    Block 315 cell size :
        i : 0.10213 .. 0.10213
        j : 0.0318954 .. 0.0318954
        k : 0.838469 .. 0.838469

    Block 316 cell size :
        i : 0.10213 .. 0.10213
        j : 0.0322243 .. 0.0322243
        k : 0.911123 .. 0.911123

    Block 317 cell size :
        i : 0.10213 .. 0.10213
        j : 0.0325396 .. 0.0325396
        k : 0.837772 .. 0.837772

    Block 318 cell size :
        i : 0.0980525 .. 0.0980525
        j : 0.0322039 .. 0.0322039
        k : 0.767088 .. 0.767088

    Block 319 cell size :
        i : 0.0459226 .. 0.0459226
        j : 0.0444653 .. 0.0444653
        k : 0.837935 .. 0.837935

    Block 320 cell size :
        i : 0.0951663 .. 0.0951663
        j : 0.0297207 .. 0.0297207
        k : 0.848366 .. 0.848366

    Block 321 cell size :
        i : 0.0951663 .. 0.0951663
        j : 0.0300272 .. 0.0300272
        k : 0.916365 .. 0.916365

    Block 322 cell size :
        i : 0.0951663 .. 0.0951663
        j : 0.030321 .. 0.030321
        k : 0.84767 .. 0.84767

    Block 323 cell size :
        i : 0.0913671 .. 0.0913671
        j : 0.0300081 .. 0.0300081
        k : 0.781518 .. 0.781518

    Block 324 cell size :
        i : 0.0427915 .. 0.0427915
        j : 0.0414336 .. 0.0414336
        k : 0.847817 .. 0.847817

    Block 325 cell size :
        i : 0.0882029 .. 0.0882029
        j : 0.027546 .. 0.027546
        k : 0.85827 .. 0.85827

    Block 326 cell size :
        i : 0.0882029 .. 0.0882029
        j : 0.0278301 .. 0.0278301
        k : 0.921616 .. 0.921616

    Block 327 cell size :
        i : 0.0882029 .. 0.0882029
        j : 0.0281024 .. 0.0281024
        k : 0.857583 .. 0.857583

    Block 328 cell size :
        i : 0.0846817 .. 0.0846817
        j : 0.0278124 .. 0.0278124
        k : 0.79596 .. 0.79596

    Block 329 cell size :
        i : 0.0396604 .. 0.0396604
        j : 0.0384019 .. 0.0384019
        k : 0.857707 .. 0.857707

    Block 330 cell size :
        i : 0.0812395 .. 0.0812395
        j : 0.0253713 .. 0.0253713
        k : 0.868182 .. 0.868182

    Block 331 cell size :
        i : 0.0812395 .. 0.0812395
        j : 0.025633 .. 0.025633
        k : 0.926878 .. 0.926878

    Block 332 cell size :
        i : 0.0812395 .. 0.0812395
        j : 0.0258838 .. 0.0258838
        k : 0.86751 .. 0.86751

    Block 333 cell size :
        i : 0.0779963 .. 0.0779963
        j : 0.0256167 .. 0.0256167
        k : 0.810414 .. 0.810414

    Block 334 cell size :
        i : 0.0365293 .. 0.0365293
        j : 0.0353702 .. 0.0353702
        k : 0.867605 .. 0.867605

    Block 335 cell size :
        i : 0.07925 .. 0.07925
        j : 0.02475 .. 0.02475
        k : 0.873418 .. 0.873418

    Block 336 cell size :
        i : 0.07925 .. 0.07925
        j : 0.0250052 .. 0.0250052
        k : 0.946182 .. 0.946182

    Block 337 cell size :
        i : 0.07925 .. 0.07925
        j : 0.0252499 .. 0.0252499
        k : 0.870362 .. 0.870362

    Block 338 cell size :
        i : 0.0760862 .. 0.0760862
        j : 0.0249894 .. 0.0249894
        k : 0.799894 .. 0.799894

    Block 339 cell size :
        i : 0.0356347 .. 0.0356347
        j : 0.034504 .. 0.034504
        k : 0.873104 .. 0.873104

    Block 340 cell size :
        i : 0.07925 .. 0.07925
        j : 0.02475 .. 0.02475
        k : 0.87795 .. 0.87795

    Block 341 cell size :
        i : 0.07925 .. 0.07925
        j : 0.0250052 .. 0.0250052
        k : 0.937439 .. 0.937439

    Block 342 cell size :
        i : 0.07925 .. 0.07925
        j : 0.0252499 .. 0.0252499
        k : 0.875792 .. 0.875792

    Block 343 cell size :
        i : 0.0760862 .. 0.0760862
        j : 0.0249894 .. 0.0249894
        k : 0.818278 .. 0.818278

    Block 344 cell size :
        i : 0.0356347 .. 0.0356347
        j : 0.034504 .. 0.034504
        k : 0.877841 .. 0.877841

    Block 345 cell size :
        i : 0.07925 .. 0.07925
        j : 0.02475 .. 0.02475
        k : 0.882735 .. 0.882735

    Block 346 cell size :
        i : 0.07925 .. 0.07925
        j : 0.0250052 .. 0.0250052
        k : 0.93466 .. 0.93466

    Block 347 cell size :
        i : 0.07925 .. 0.07925
        j : 0.0252499 .. 0.0252499
        k : 0.881123 .. 0.881123

    Block 348 cell size :
        i : 0.0760862 .. 0.0760862
        j : 0.0249894 .. 0.0249894
        k : 0.830908 .. 0.830908

    Block 349 cell size :
        i : 0.0356347 .. 0.0356347
        j : 0.034504 .. 0.034504
        k : 0.882711 .. 0.882711

    Block 350 cell size :
        i : 0.07925 .. 0.07925
        j : 0.02475 .. 0.02475
        k : 0.887686 .. 0.887686

    Block 351 cell size :
        i : 0.07925 .. 0.07925
        j : 0.0250052 .. 0.0250052
        k : 0.939615 .. 0.939615

    Block 352 cell size :
        i : 0.07925 .. 0.07925
        j : 0.0252499 .. 0.0252499
        k : 0.886069 .. 0.886069

    Block 353 cell size :
        i : 0.0760862 .. 0.0760862
        j : 0.0249894 .. 0.0249894
        k : 0.83585 .. 0.83585

    Block 354 cell size :
        i : 0.0356347 .. 0.0356347
        j : 0.034504 .. 0.034504
        k : 0.887662 .. 0.887662

    Block 355 cell size :
        i : 0.07925 .. 0.07925
        j : 0.02475 .. 0.02475
        k : 0.892639 .. 0.892639

    Block 356 cell size :
        i : 0.07925 .. 0.07925
        j : 0.0250052 .. 0.0250052
        k : 0.94457 .. 0.94457

    Block 357 cell size :
        i : 0.07925 .. 0.07925
        j : 0.0252499 .. 0.0252499
        k : 0.891015 .. 0.891015

    Block 358 cell size :
        i : 0.0760862 .. 0.0760862
        j : 0.0249894 .. 0.0249894
        k : 0.840793 .. 0.840793

    Block 359 cell size :
        i : 0.0356347 .. 0.0356347
        j : 0.034504 .. 0.034504
        k : 0.892613 .. 0.892613

    Block 360 cell size :
        i : 0.07925 .. 0.07925
        j : 0.02475 .. 0.02475
        k : 0.897592 .. 0.897592

    Block 361 cell size :
        i : 0.07925 .. 0.07925
        j : 0.0250052 .. 0.0250052
        k : 0.949527 .. 0.949527

    Block 362 cell size :
        i : 0.07925 .. 0.07925
        j : 0.0252499 .. 0.0252499
        k : 0.895963 .. 0.895963

    Block 363 cell size :
        i : 0.0760862 .. 0.0760862
        j : 0.0249894 .. 0.0249894
        k : 0.845738 .. 0.845738

    Block 364 cell size :
        i : 0.0356347 .. 0.0356347
        j : 0.0345039 .. 0.0345039
        k : 0.897566 .. 0.897566

    Block 365 cell size :
        i : 0.07925 .. 0.07925
        j : 0.02475 .. 0.02475
        k : 0.902546 .. 0.902546

    Block 366 cell size :
        i : 0.07925 .. 0.07925
        j : 0.0250052 .. 0.0250052
        k : 0.954484 .. 0.954484

    Block 367 cell size :
        i : 0.07925 .. 0.07925
        j : 0.0252499 .. 0.0252499
        k : 0.900912 .. 0.900912

    Block 368 cell size :
        i : 0.0760862 .. 0.0760862
        j : 0.0249894 .. 0.0249894
        k : 0.850683 .. 0.850683

    Block 369 cell size :
        i : 0.0356347 .. 0.0356347
        j : 0.034504 .. 0.034504
        k : 0.902519 .. 0.902519

    Block 370 cell size :
        i : 0.07925 .. 0.07925
        j : 0.02475 .. 0.02475
        k : 0.9075 .. 0.9075

    Block 371 cell size :
        i : 0.07925 .. 0.07925
        j : 0.0250052 .. 0.0250052
        k : 0.959443 .. 0.959443

    Block 372 cell size :
        i : 0.07925 .. 0.07925
        j : 0.0252499 .. 0.0252499
        k : 0.905861 .. 0.905861

    Block 373 cell size :
        i : 0.0760862 .. 0.0760862
        j : 0.0249894 .. 0.0249894
        k : 0.855629 .. 0.855629

    Block 374 cell size :
        i : 0.0356347 .. 0.0356347
        j : 0.0345039 .. 0.0345039
        k : 0.907473 .. 0.907473

    Block 375 cell size :
        i : 0.07925 .. 0.07925
        j : 0.02475 .. 0.02475
        k : 0.912456 .. 0.912456

    Block 376 cell size :
        i : 0.07925 .. 0.07925
        j : 0.0250052 .. 0.0250052
        k : 0.964401 .. 0.964401

    Block 377 cell size :
        i : 0.07925 .. 0.07925
        j : 0.0252499 .. 0.0252499
        k : 0.910811 .. 0.910811

    Block 378 cell size :
        i : 0.0760862 .. 0.0760862
        j : 0.0249894 .. 0.0249894
        k : 0.860576 .. 0.860576

    Block 379 cell size :
        i : 0.0356347 .. 0.0356347
        j : 0.034504 .. 0.034504
        k : 0.912427 .. 0.912427

    Block 380 cell size :
        i : 0.07925 .. 0.07925
        j : 0.02475 .. 0.02475
        k : 0.917412 .. 0.917412

    Block 381 cell size :
        i : 0.07925 .. 0.07925
        j : 0.0250052 .. 0.0250052
        k : 0.969361 .. 0.969361

    Block 382 cell size :
        i : 0.07925 .. 0.07925
        j : 0.0252499 .. 0.0252499
        k : 0.915762 .. 0.915762

    Block 383 cell size :
        i : 0.0760862 .. 0.0760862
        j : 0.0249894 .. 0.0249894
        k : 0.865524 .. 0.865524

    Block 384 cell size :
        i : 0.0356347 .. 0.0356347
        j : 0.034504 .. 0.034504
        k : 0.917383 .. 0.917383

    Block 385 cell size :
        i : 0.07925 .. 0.07925
        j : 0.02475 .. 0.02475
        k : 0.922369 .. 0.922369

    Block 386 cell size :
        i : 0.07925 .. 0.07925
        j : 0.0250052 .. 0.0250052
        k : 0.974321 .. 0.974321

    Block 387 cell size :
        i : 0.07925 .. 0.07925
        j : 0.0252499 .. 0.0252499
        k : 0.920714 .. 0.920714

    Block 388 cell size :
        i : 0.0760862 .. 0.0760862
        j : 0.0249894 .. 0.0249894
        k : 0.870473 .. 0.870473

    Block 389 cell size :
        i : 0.0356347 .. 0.0356347
        j : 0.034504 .. 0.034504
        k : 0.922339 .. 0.922339

    Block 390 cell size :
        i : 0.07925 .. 0.07925
        j : 0.02475 .. 0.02475
        k : 0.927326 .. 0.927326

    Block 391 cell size :
        i : 0.07925 .. 0.07925
        j : 0.0250052 .. 0.0250052
        k : 0.979282 .. 0.979282

    Block 392 cell size :
        i : 0.07925 .. 0.07925
        j : 0.0252499 .. 0.0252499
        k : 0.925667 .. 0.925667

    Block 393 cell size :
        i : 0.0760862 .. 0.0760862
        j : 0.0249894 .. 0.0249894
        k : 0.875423 .. 0.875423

    Block 394 cell size :
        i : 0.0356347 .. 0.0356347
        j : 0.034504 .. 0.034504
        k : 0.927296 .. 0.927296

    Block 395 cell size :
        i : 0.07925 .. 0.07925
        j : 0.02475 .. 0.02475
        k : 0.932285 .. 0.932285

    Block 396 cell size :
        i : 0.07925 .. 0.07925
        j : 0.0250052 .. 0.0250052
        k : 0.984243 .. 0.984243

    Block 397 cell size :
        i : 0.07925 .. 0.07925
        j : 0.0252499 .. 0.0252499
        k : 0.930621 .. 0.930621

    Block 398 cell size :
        i : 0.0760862 .. 0.0760862
        j : 0.0249894 .. 0.0249894
        k : 0.880374 .. 0.880374

    Block 399 cell size :
        i : 0.0356347 .. 0.0356347
        j : 0.034504 .. 0.034504
        k : 0.932254 .. 0.932254

    Block 400 cell size :
        i : 0.07925 .. 0.07925
        j : 0.02475 .. 0.02475
        k : 0.937244 .. 0.937244

    Block 401 cell size :
        i : 0.07925 .. 0.07925
        j : 0.0250052 .. 0.0250052
        k : 0.989206 .. 0.989206

    Block 402 cell size :
        i : 0.07925 .. 0.07925
        j : 0.0252499 .. 0.0252499
        k : 0.935575 .. 0.935575

    Block 403 cell size :
        i : 0.0760862 .. 0.0760862
        j : 0.0249894 .. 0.0249894
        k : 0.885325 .. 0.885325

    Block 404 cell size :
        i : 0.0356347 .. 0.0356347
        j : 0.034504 .. 0.034504
        k : 0.937212 .. 0.937212

    Block 405 cell size :
        i : 0.07925 .. 0.07925
        j : 0.02475 .. 0.02475
        k : 0.942204 .. 0.942204

    Block 406 cell size :
        i : 0.07925 .. 0.07925
        j : 0.0250052 .. 0.0250052
        k : 0.994169 .. 0.994169

    Block 407 cell size :
        i : 0.07925 .. 0.07925
        j : 0.0252499 .. 0.0252499
        k : 0.94053 .. 0.94053

    Block 408 cell size :
        i : 0.0760862 .. 0.0760862
        j : 0.0249894 .. 0.0249894
        k : 0.890277 .. 0.890277

    Block 409 cell size :
        i : 0.0356347 .. 0.0356347
        j : 0.034504 .. 0.034504
        k : 0.942171 .. 0.942171

    Block 410 cell size :
        i : 0.07925 .. 0.07925
        j : 0.02475 .. 0.02475
        k : 0.947164 .. 0.947164

    Block 411 cell size :
        i : 0.07925 .. 0.07925
        j : 0.0250052 .. 0.0250052
        k : 0.999132 .. 0.999132

    Block 412 cell size :
        i : 0.07925 .. 0.07925
        j : 0.0252499 .. 0.0252499
        k : 0.945486 .. 0.945486

    Block 413 cell size :
        i : 0.0760862 .. 0.0760862
        j : 0.0249894 .. 0.0249894
        k : 0.89523 .. 0.89523

    Block 414 cell size :
        i : 0.0356347 .. 0.0356347
        j : 0.034504 .. 0.034504
        k : 0.947131 .. 0.947131

    Block 415 cell size :
        i : 0.07925 .. 0.07925
        j : 0.02475 .. 0.02475
        k : 0.952125 .. 0.952125

    Block 416 cell size :
        i : 0.07925 .. 0.07925
        j : 0.0250052 .. 0.0250052
        k : 1.0041 .. 1.0041

    Block 417 cell size :
        i : 0.07925 .. 0.07925
        j : 0.0252499 .. 0.0252499
        k : 0.950443 .. 0.950443

    Block 418 cell size :
        i : 0.0760862 .. 0.0760862
        j : 0.0249894 .. 0.0249894
        k : 0.900184 .. 0.900184

    Block 419 cell size :
        i : 0.0356347 .. 0.0356347
        j : 0.034504 .. 0.034504
        k : 0.952091 .. 0.952091

    Block 420 cell size :
        i : 0.07925 .. 0.07925
        j : 0.02475 .. 0.02475
        k : 0.957087 .. 0.957087

    Block 421 cell size :
        i : 0.07925 .. 0.07925
        j : 0.0250052 .. 0.0250052
        k : 1.00906 .. 1.00906

    Block 422 cell size :
        i : 0.07925 .. 0.07925
        j : 0.0252499 .. 0.0252499
        k : 0.955401 .. 0.955401

    Block 423 cell size :
        i : 0.0760862 .. 0.0760862
        j : 0.0249894 .. 0.0249894
        k : 0.905139 .. 0.905139

    Block 424 cell size :
        i : 0.0356347 .. 0.0356347
        j : 0.034504 .. 0.034504
        k : 0.957053 .. 0.957053

    Block 425 cell size :
        i : 0.07925 .. 0.07925
        j : 0.02475 .. 0.02475
        k : 0.962049 .. 0.962049

    Block 426 cell size :
        i : 0.07925 .. 0.07925
        j : 0.0250052 .. 0.0250052
        k : 1.01403 .. 1.01403

    Block 427 cell size :
        i : 0.07925 .. 0.07925
        j : 0.0252499 .. 0.0252499
        k : 0.960359 .. 0.960359

    Block 428 cell size :
        i : 0.0760862 .. 0.0760862
        j : 0.0249894 .. 0.0249894
        k : 0.910094 .. 0.910094

    Block 429 cell size :
        i : 0.0356347 .. 0.0356347
        j : 0.034504 .. 0.034504
        k : 0.962014 .. 0.962014

    Block 430 cell size :
        i : 0.07925 .. 0.07925
        j : 0.02475 .. 0.02475
        k : 0.967012 .. 0.967012

    Block 431 cell size :
        i : 0.07925 .. 0.07925
        j : 0.0250052 .. 0.0250052
        k : 1.01899 .. 1.01899

    Block 432 cell size :
        i : 0.07925 .. 0.07925
        j : 0.0252499 .. 0.0252499
        k : 0.965318 .. 0.965318

    Block 433 cell size :
        i : 0.0760862 .. 0.0760862
        j : 0.0249894 .. 0.0249894
        k : 0.915051 .. 0.915051

    Block 434 cell size :
        i : 0.0356347 .. 0.0356347
        j : 0.034504 .. 0.034504
        k : 0.966977 .. 0.966977

    Block 435 cell size :
        i : 0.07925 .. 0.07925
        j : 0.02475 .. 0.02475
        k : 0.971976 .. 0.971976

    Block 436 cell size :
        i : 0.07925 .. 0.07925
        j : 0.0250052 .. 0.0250052
        k : 1.02396 .. 1.02396

    Block 437 cell size :
        i : 0.07925 .. 0.07925
        j : 0.0252499 .. 0.0252499
        k : 0.970278 .. 0.970278

    Block 438 cell size :
        i : 0.0760862 .. 0.0760862
        j : 0.0249894 .. 0.0249894
        k : 0.920008 .. 0.920008

    Block 439 cell size :
        i : 0.0356347 .. 0.0356347
        j : 0.034504 .. 0.034504
        k : 0.97194 .. 0.97194

    Block 440 cell size :
        i : 0.07925 .. 0.07925
        j : 0.02475 .. 0.02475
        k : 0.976941 .. 0.976941

    Block 441 cell size :
        i : 0.07925 .. 0.07925
        j : 0.0250052 .. 0.0250052
        k : 1.02893 .. 1.02893

    Block 442 cell size :
        i : 0.07925 .. 0.07925
        j : 0.0252499 .. 0.0252499
        k : 0.975238 .. 0.975238

    Block 443 cell size :
        i : 0.0760862 .. 0.0760862
        j : 0.0249894 .. 0.0249894
        k : 0.924965 .. 0.924965

    Block 444 cell size :
        i : 0.0356347 .. 0.0356347
        j : 0.034504 .. 0.034504
        k : 0.976904 .. 0.976904

    Block 445 cell size :
        i : 0.07925 .. 0.07925
        j : 0.02475 .. 0.02475
        k : 0.981905 .. 0.981905

    Block 446 cell size :
        i : 0.07925 .. 0.07925
        j : 0.0250052 .. 0.0250052
        k : 1.03389 .. 1.03389

    Block 447 cell size :
        i : 0.07925 .. 0.07925
        j : 0.0252499 .. 0.0252499
        k : 0.980199 .. 0.980199

    Block 448 cell size :
        i : 0.0760862 .. 0.0760862
        j : 0.0249894 .. 0.0249894
        k : 0.929924 .. 0.929924

    Block 449 cell size :
        i : 0.0356347 .. 0.0356347
        j : 0.034504 .. 0.034504
        k : 0.981868 .. 0.981868

    Block 450 cell size :
        i : 0.07925 .. 0.07925
        j : 0.02475 .. 0.02475
        k : 0.986871 .. 0.986871

    Block 451 cell size :
        i : 0.07925 .. 0.07925
        j : 0.0250052 .. 0.0250052
        k : 1.03886 .. 1.03886

    Block 452 cell size :
        i : 0.07925 .. 0.07925
        j : 0.0252499 .. 0.0252499
        k : 0.985161 .. 0.985161

    Block 453 cell size :
        i : 0.0760862 .. 0.0760862
        j : 0.0249894 .. 0.0249894
        k : 0.934883 .. 0.934883

    Block 454 cell size :
        i : 0.0356347 .. 0.0356347
        j : 0.034504 .. 0.034504
        k : 0.986833 .. 0.986833

    Block 455 cell size :
        i : 0.07925 .. 0.07925
        j : 0.02475 .. 0.02475
        k : 0.991837 .. 0.991837

    Block 456 cell size :
        i : 0.07925 .. 0.07925
        j : 0.0250052 .. 0.0250052
        k : 1.04383 .. 1.04383

    Block 457 cell size :
        i : 0.07925 .. 0.07925
        j : 0.0252499 .. 0.0252499
        k : 0.990123 .. 0.990123

    Block 458 cell size :
        i : 0.0760862 .. 0.0760862
        j : 0.0249894 .. 0.0249894
        k : 0.939843 .. 0.939843

    Block 459 cell size :
        i : 0.0356347 .. 0.0356347
        j : 0.034504 .. 0.034504
        k : 0.991799 .. 0.991799

    Block 460 cell size :
        i : 0.07925 .. 0.07925
        j : 0.02475 .. 0.02475
        k : 0.996804 .. 0.996804

    Block 461 cell size :
        i : 0.07925 .. 0.07925
        j : 0.0250052 .. 0.0250052
        k : 1.0488 .. 1.0488

    Block 462 cell size :
        i : 0.07925 .. 0.07925
        j : 0.0252499 .. 0.0252499
        k : 0.995087 .. 0.995087

    Block 463 cell size :
        i : 0.0760862 .. 0.0760862
        j : 0.0249894 .. 0.0249894
        k : 0.944803 .. 0.944803

    Block 464 cell size :
        i : 0.0356347 .. 0.0356347
        j : 0.034504 .. 0.034504
        k : 0.996765 .. 0.996765

    Block 465 cell size :
        i : 0.07925 .. 0.07925
        j : 0.02475 .. 0.02475
        k : 1.00177 .. 1.00177

    Block 466 cell size :
        i : 0.07925 .. 0.07925
        j : 0.0250052 .. 0.0250052
        k : 1.05377 .. 1.05377

    Block 467 cell size :
        i : 0.07925 .. 0.07925
        j : 0.0252499 .. 0.0252499
        k : 1.00005 .. 1.00005

    Block 468 cell size :
        i : 0.0760862 .. 0.0760862
        j : 0.0249894 .. 0.0249894
        k : 0.949764 .. 0.949764

    Block 469 cell size :
        i : 0.0356347 .. 0.0356347
        j : 0.034504 .. 0.034504
        k : 1.00173 .. 1.00173

    Block 470 cell size :
        i : 0.07925 .. 0.07925
        j : 0.02475 .. 0.02475
        k : 1.00674 .. 1.00674

    Block 471 cell size :
        i : 0.07925 .. 0.07925
        j : 0.0250052 .. 0.0250052
        k : 1.05874 .. 1.05874

    Block 472 cell size :
        i : 0.07925 .. 0.07925
        j : 0.0252499 .. 0.0252499
        k : 1.00501 .. 1.00501

    Block 473 cell size :
        i : 0.0760862 .. 0.0760862
        j : 0.0249894 .. 0.0249894
        k : 0.954726 .. 0.954726

    Block 474 cell size :
        i : 0.0356347 .. 0.0356347
        j : 0.034504 .. 0.034504
        k : 1.0067 .. 1.0067

    Block 475 cell size :
        i : 0.07925 .. 0.07925
        j : 0.02475 .. 0.02475
        k : 1.01171 .. 1.01171

    Block 476 cell size :
        i : 0.07925 .. 0.07925
        j : 0.0250052 .. 0.0250052
        k : 1.06371 .. 1.06371

    Block 477 cell size :
        i : 0.07925 .. 0.07925
        j : 0.0252499 .. 0.0252499
        k : 1.00998 .. 1.00998

    Block 478 cell size :
        i : 0.0760862 .. 0.0760862
        j : 0.0249894 .. 0.0249894
        k : 0.959689 .. 0.959689

    Block 479 cell size :
        i : 0.0356347 .. 0.0356347
        j : 0.034504 .. 0.034504
        k : 1.01167 .. 1.01167

    Block 480 cell size :
        i : 0.07925 .. 0.07925
        j : 0.02475 .. 0.02475
        k : 1.01668 .. 1.01668

    Block 481 cell size :
        i : 0.07925 .. 0.07925
        j : 0.0250052 .. 0.0250052
        k : 1.06868 .. 1.06868

    Block 482 cell size :
        i : 0.07925 .. 0.07925
        j : 0.0252499 .. 0.0252499
        k : 1.01495 .. 1.01495

    Block 483 cell size :
        i : 0.0760862 .. 0.0760862
        j : 0.0249894 .. 0.0249894
        k : 0.964652 .. 0.964652

    Block 484 cell size :
        i : 0.0356347 .. 0.0356347
        j : 0.034504 .. 0.034504
        k : 1.01664 .. 1.01664

    Block 485 cell size :
        i : 0.07925 .. 0.07925
        j : 0.02475 .. 0.02475
        k : 1.02165 .. 1.02165

    Block 486 cell size :
        i : 0.07925 .. 0.07925
        j : 0.0250052 .. 0.0250052
        k : 1.07366 .. 1.07366

    Block 487 cell size :
        i : 0.07925 .. 0.07925
        j : 0.0252499 .. 0.0252499
        k : 1.01991 .. 1.01991

    Block 488 cell size :
        i : 0.0760862 .. 0.0760862
        j : 0.0249894 .. 0.0249894
        k : 0.969616 .. 0.969616

    Block 489 cell size :
        i : 0.0356347 .. 0.0356347
        j : 0.034504 .. 0.034504
        k : 1.0216 .. 1.0216

    Block 490 cell size :
        i : 0.07925 .. 0.07925
        j : 0.02475 .. 0.02475
        k : 1.02662 .. 1.02662

    Block 491 cell size :
        i : 0.07925 .. 0.07925
        j : 0.0250052 .. 0.0250052
        k : 1.07863 .. 1.07863

    Block 492 cell size :
        i : 0.07925 .. 0.07925
        j : 0.0252499 .. 0.0252499
        k : 1.02488 .. 1.02488

    Block 493 cell size :
        i : 0.0760862 .. 0.0760862
        j : 0.0249894 .. 0.0249894
        k : 0.97458 .. 0.97458

    Block 494 cell size :
        i : 0.0356347 .. 0.0356347
        j : 0.034504 .. 0.034504
        k : 1.02657 .. 1.02657

    Block 495 cell size :
        i : 0.07925 .. 0.07925
        j : 0.02475 .. 0.02475
        k : 1.03159 .. 1.03159

    Block 496 cell size :
        i : 0.07925 .. 0.07925
        j : 0.0250052 .. 0.0250052
        k : 1.0836 .. 1.0836

    Block 497 cell size :
        i : 0.07925 .. 0.07925
        j : 0.0252499 .. 0.0252499
        k : 1.02985 .. 1.02985

    Block 498 cell size :
        i : 0.0760862 .. 0.0760862
        j : 0.0249894 .. 0.0249894
        k : 0.979545 .. 0.979545

    Block 499 cell size :
        i : 0.0356347 .. 0.0356347
        j : 0.034504 .. 0.034504
        k : 1.03154 .. 1.03154

    Block 500 cell size :
        i : 0.07925 .. 0.07925
        j : 0.02475 .. 0.02475
        k : 1.03656 .. 1.03656

    Block 501 cell size :
        i : 0.07925 .. 0.07925
        j : 0.0250052 .. 0.0250052
        k : 1.08858 .. 1.08858

    Block 502 cell size :
        i : 0.07925 .. 0.07925
        j : 0.0252499 .. 0.0252499
        k : 1.03481 .. 1.03481

    Block 503 cell size :
        i : 0.0760862 .. 0.0760862
        j : 0.0249894 .. 0.0249894
        k : 0.984511 .. 0.984511

    Block 504 cell size :
        i : 0.0356347 .. 0.0356347
        j : 0.034504 .. 0.034504
        k : 1.03652 .. 1.03652

    Block 505 cell size :
        i : 0.083229 .. 0.083229
        j : 0.0259927 .. 0.0259927
        k : 0.991663 .. 0.991663

    Block 506 cell size :
        i : 0.083229 .. 0.083229
        j : 0.0262607 .. 0.0262607
        k : 1.09776 .. 1.09776

    Block 507 cell size :
        i : 0.083229 .. 0.083229
        j : 0.0265177 .. 0.0265177
        k : 1.06905 .. 1.06905

    Block 508 cell size :
        i : 0.0799064 .. 0.0799064
        j : 0.026244 .. 0.026244
        k : 0.963955 .. 0.963955

    Block 509 cell size :
        i : 0.0374239 .. 0.0374239
        j : 0.0362364 .. 0.0362364
        k : 1.01104 .. 1.01104

    Block 510 cell size :
        i : 0.0901924 .. 0.0901924
        j : 0.0281674 .. 0.0281674
        k : 0.999183 .. 0.999183

    Block 511 cell size :
        i : 0.0901924 .. 0.0901924
        j : 0.0284578 .. 0.0284578
        k : 1.09706 .. 1.09706

    Block 512 cell size :
        i : 0.0901924 .. 0.0901924
        j : 0.0287363 .. 0.0287363
        k : 1.06051 .. 1.06051

    Block 513 cell size :
        i : 0.0865918 .. 0.0865918
        j : 0.0284398 .. 0.0284398
        k : 0.964089 .. 0.964089

    Block 514 cell size :
        i : 0.040555 .. 0.040555
        j : 0.0392681 .. 0.0392681
        k : 1.01414 .. 1.01414

    Block 515 cell size :
        i : 0.0971558 .. 0.0971558
        j : 0.030342 .. 0.0303421
        k : 1.03056 .. 1.03056

    Block 516 cell size :
        i : 0.0971558 .. 0.0971558
        j : 0.0306549 .. 0.0306549
        k : 1.09038 .. 1.09038

    Block 517 cell size :
        i : 0.0971558 .. 0.0971558
        j : 0.0309549 .. 0.0309549
        k : 1.0287 .. 1.0287

    Block 518 cell size :
        i : 0.0932772 .. 0.0932772
        j : 0.0306355 .. 0.0306355
        k : 0.971119 .. 0.971119

    Block 519 cell size :
        i : 0.0436861 .. 0.0436861
        j : 0.0422998 .. 0.0422998
        k : 1.02987 .. 1.02987

    Block 520 cell size :
        i : 0.104119 .. 0.104119
        j : 0.0325167 .. 0.0325167
        k : 1.03061 .. 1.03061

    Block 521 cell size :
        i : 0.104119 .. 0.104119
        j : 0.032852 .. 0.032852
        k : 1.09504 .. 1.09504

    Block 522 cell size :
        i : 0.104119 .. 0.104119
        j : 0.0331735 .. 0.0331735
        k : 1.0286 .. 1.0286

    Block 523 cell size :
        i : 0.0999626 .. 0.0999626
        j : 0.0328312 .. 0.0328312
        k : 0.966579 .. 0.966579

    Block 524 cell size :
        i : 0.0468171 .. 0.0468171
        j : 0.0453316 .. 0.0453316
        k : 1.02992 .. 1.02992

    Block 525 cell size :
        i : 0.111083 .. 0.111083
        j : 0.0346914 .. 0.0346914
        k : 1.03065 .. 1.03065

    Block 526 cell size :
        i : 0.111083 .. 0.111083
        j : 0.0350492 .. 0.0350492
        k : 1.0997 .. 1.0997

    Block 527 cell size :
        i : 0.111083 .. 0.111083
        j : 0.0353921 .. 0.0353921
        k : 1.0285 .. 1.0285

    Block 528 cell size :
        i : 0.106648 .. 0.106648
        j : 0.0350269 .. 0.0350269
        k : 0.962039 .. 0.962039

    Block 529 cell size :
        i : 0.0499482 .. 0.0499482
        j : 0.0483633 .. 0.0483633
        k : 1.02996 .. 1.02996

    Block 530 cell size :
        i : 0.118046 .. 0.118046
        j : 0.0368661 .. 0.0368661
        k : 1.0307 .. 1.0307

    Block 531 cell size :
        i : 0.118046 .. 0.118046
        j : 0.0372463 .. 0.0372463
        k : 1.10436 .. 1.10436

    Block 532 cell size :
        i : 0.118046 .. 0.118046
        j : 0.0376107 .. 0.0376107
        k : 1.0284 .. 1.0284

    Block 533 cell size :
        i : 0.113333 .. 0.113333
        j : 0.0372226 .. 0.0372226
        k : 0.957499 .. 0.957499

    Block 534 cell size :
        i : 0.0530793 .. 0.0530793
        j : 0.051395 .. 0.051395
        k : 1.03001 .. 1.03001

    Block 535 cell size :
        i : 0.125009 .. 0.125009
        j : 0.0390408 .. 0.0390408
        k : 1.03074 .. 1.03074

    Block 536 cell size :
        i : 0.125009 .. 0.125009
        j : 0.0394434 .. 0.0394434
        k : 1.10901 .. 1.10901

    Block 537 cell size :
        i : 0.125009 .. 0.125009
        j : 0.0398293 .. 0.0398293
        k : 1.0283 .. 1.0283

    Block 538 cell size :
        i : 0.120019 .. 0.120019
        j : 0.0394184 .. 0.0394184
        k : 0.952957 .. 0.952957

    Block 539 cell size :
        i : 0.0562104 .. 0.0562104
        j : 0.0544267 .. 0.0544267
        k : 1.03005 .. 1.03005

    Block 540 cell size :
        i : 0.131973 .. 0.131973
        j : 0.0412155 .. 0.0412155
        k : 1.03078 .. 1.03078

    Block 541 cell size :
        i : 0.131973 .. 0.131973
        j : 0.0416405 .. 0.0416405
        k : 1.11367 .. 1.11367

    Block 542 cell size :
        i : 0.131973 .. 0.131973
        j : 0.0420479 .. 0.0420479
        k : 1.02819 .. 1.02819

    Block 543 cell size :
        i : 0.126704 .. 0.126704
        j : 0.0416141 .. 0.0416141
        k : 0.948415 .. 0.948415

    Block 544 cell size :
        i : 0.0593415 .. 0.0593415
        j : 0.0574585 .. 0.0574585
        k : 1.03009 .. 1.03009

    Block 545 cell size :
        i : 0.138936 .. 0.138936
        j : 0.0433902 .. 0.0433902
        k : 1.03082 .. 1.03082

    Block 546 cell size :
        i : 0.138936 .. 0.138936
        j : 0.0438376 .. 0.0438376
        k : 1.11832 .. 1.11832

    Block 547 cell size :
        i : 0.138936 .. 0.138936
        j : 0.0442665 .. 0.0442665
        k : 1.02809 .. 1.02809

    Block 548 cell size :
        i : 0.13339 .. 0.13339
        j : 0.0438098 .. 0.0438098
        k : 0.94387 .. 0.94387

    Block 549 cell size :
        i : 0.0624726 .. 0.0624726
        j : 0.0604902 .. 0.0604902
        k : 1.03013 .. 1.03013

    Block 550 cell size :
        i : 0.1459 .. 0.1459
        j : 0.0455649 .. 0.0455649
        k : 1.03085 .. 1.03085

    Block 551 cell size :
        i : 0.1459 .. 0.1459
        j : 0.0460347 .. 0.0460347
        k : 1.12297 .. 1.12297

    Block 552 cell size :
        i : 0.1459 .. 0.1459
        j : 0.0464851 .. 0.0464851
        k : 1.02798 .. 1.02798

    Block 553 cell size :
        i : 0.140075 .. 0.140075
        j : 0.0460055 .. 0.0460055
        k : 0.939323 .. 0.939323

    Block 554 cell size :
        i : 0.0656036 .. 0.0656036
        j : 0.0635219 .. 0.0635219
        k : 1.03017 .. 1.03017

    Block 555 cell size :
        i : 0.152863 .. 0.152863
        j : 0.0477395 .. 0.0477395
        k : 1.03089 .. 1.03089

    Block 556 cell size :
        i : 0.152863 .. 0.152863
        j : 0.0482318 .. 0.0482318
        k : 1.12761 .. 1.12761

    Block 557 cell size :
        i : 0.152863 .. 0.152863
        j : 0.0487037 .. 0.0487037
        k : 1.02786 .. 1.02786

    Block 558 cell size :
        i : 0.14676 .. 0.14676
        j : 0.0482012 .. 0.0482012
        k : 0.934772 .. 0.934772

    Block 559 cell size :
        i : 0.0687347 .. 0.0687347
        j : 0.0665536 .. 0.0665536
        k : 1.0302 .. 1.0302

    Block 560 cell size :
        i : 0.159826 .. 0.159826
        j : 0.0499142 .. 0.0499142
        k : 1.03092 .. 1.03092

    Block 561 cell size :
        i : 0.159826 .. 0.159826
        j : 0.0504289 .. 0.0504289
        k : 1.13226 .. 1.13226

    Block 562 cell size :
        i : 0.159826 .. 0.159826
        j : 0.0509223 .. 0.0509223
        k : 1.02775 .. 1.02775

    Block 563 cell size :
        i : 0.153446 .. 0.153446
        j : 0.0503969 .. 0.0503969
        k : 0.930219 .. 0.930219

    Block 564 cell size :
        i : 0.0718658 .. 0.0718658
        j : 0.0695854 .. 0.0695854
        k : 1.03023 .. 1.03023

    Block 565 cell size :
        i : 0.16679 .. 0.16679
        j : 0.0520889 .. 0.0520889
        k : 1.03094 .. 1.03094

    Block 566 cell size :
        i : 0.16679 .. 0.16679
        j : 0.052626 .. 0.052626
        k : 1.13689 .. 1.13689

    Block 567 cell size :
        i : 0.16679 .. 0.16679
        j : 0.053141 .. 0.053141
        k : 1.02763 .. 1.02763

    Block 568 cell size :
        i : 0.160131 .. 0.160131
        j : 0.0525927 .. 0.0525927
        k : 0.925662 .. 0.925662

    Block 569 cell size :
        i : 0.0749969 .. 0.0749969
        j : 0.0726171 .. 0.0726171
        k : 1.03025 .. 1.03025

    Block 570 cell size :
        i : 0.173753 .. 0.173753
        j : 0.0542636 .. 0.0542636
        k : 1.03096 .. 1.03096

    Block 571 cell size :
        i : 0.173753 .. 0.173753
        j : 0.0548232 .. 0.0548232
        k : 1.14153 .. 1.14153

    Block 572 cell size :
        i : 0.173753 .. 0.173753
        j : 0.0553596 .. 0.0553596
        k : 1.0275 .. 1.0275

    Block 573 cell size :
        i : 0.166817 .. 0.166817
        j : 0.0547884 .. 0.0547884
        k : 0.9211 .. 0.9211

    Block 574 cell size :
        i : 0.078128 .. 0.078128
        j : 0.0756488 .. 0.0756488
        k : 1.03027 .. 1.03027

    Block 575 cell size :
        i : 0.180716 .. 0.180716
        j : 0.0564383 .. 0.0564383
        k : 1.03098 .. 1.03098

    Block 576 cell size :
        i : 0.180716 .. 0.180716
        j : 0.0570203 .. 0.0570203
        k : 1.14616 .. 1.14616

    Block 577 cell size :
        i : 0.180716 .. 0.180716
        j : 0.0575782 .. 0.0575782
        k : 1.02737 .. 1.02737

    Block 578 cell size :
        i : 0.173502 .. 0.173502
        j : 0.0569841 .. 0.0569841
        k : 0.916534 .. 0.916534

    Block 579 cell size :
        i : 0.0812591 .. 0.0812591
        j : 0.0786806 .. 0.0786806
        k : 1.03029 .. 1.03029

    Block 580 cell size :
        i : 0.18768 .. 0.18768
        j : 0.058613 .. 0.058613
        k : 1.03099 .. 1.03099

    Block 581 cell size :
        i : 0.18768 .. 0.18768
        j : 0.0592174 .. 0.0592174
        k : 1.15078 .. 1.15078

    Block 582 cell size :
        i : 0.18768 .. 0.18768
        j : 0.0597968 .. 0.0597968
        k : 1.02724 .. 1.02724

    Block 583 cell size :
        i : 0.180187 .. 0.180187
        j : 0.0591798 .. 0.0591798
        k : 0.911964 .. 0.911964

    Block 584 cell size :
        i : 0.0843901 .. 0.0843901
        j : 0.0817123 .. 0.0817123
        k : 1.0303 .. 1.0303

    Block 585 cell size :
        i : 0.194643 .. 0.194643
        j : 0.0607877 .. 0.0607877
        k : 1.031 .. 1.031

    Block 586 cell size :
        i : 0.194643 .. 0.194643
        j : 0.0614145 .. 0.0614145
        k : 1.1554 .. 1.1554

    Block 587 cell size :
        i : 0.194643 .. 0.194643
        j : 0.0620154 .. 0.0620154
        k : 1.0271 .. 1.0271

    Block 588 cell size :
        i : 0.186873 .. 0.186873
        j : 0.0613755 .. 0.0613755
        k : 0.907388 .. 0.907388

    Block 589 cell size :
        i : 0.0875212 .. 0.0875212
        j : 0.084744 .. 0.084744
        k : 1.03031 .. 1.03031

    Block 590 cell size :
        i : 0.201607 .. 0.201607
        j : 0.0629623 .. 0.0629623
        k : 1.031 .. 1.031

    Block 591 cell size :
        i : 0.201607 .. 0.201607
        j : 0.0636116 .. 0.0636116
        k : 1.16002 .. 1.16002

    Block 592 cell size :
        i : 0.201607 .. 0.201607
        j : 0.064234 .. 0.064234
        k : 1.02695 .. 1.02695

    Block 593 cell size :
        i : 0.193558 .. 0.193558
        j : 0.0635712 .. 0.0635712
        k : 0.902808 .. 0.902808

    Block 594 cell size :
        i : 0.0906523 .. 0.0906523
        j : 0.0877757 .. 0.0877757
        k : 1.03031 .. 1.03031

    Block 595 cell size :
        i : 0.20857 .. 0.20857
        j : 0.065137 .. 0.065137
        k : 1.031 .. 1.031

    Block 596 cell size :
        i : 0.20857 .. 0.20857
        j : 0.0658087 .. 0.0658087
        k : 1.16463 .. 1.16463

    Block 597 cell size :
        i : 0.20857 .. 0.20857
        j : 0.0664526 .. 0.0664526
        k : 1.02681 .. 1.02681

    Block 598 cell size :
        i : 0.200244 .. 0.200244
        j : 0.065767 .. 0.065767
        k : 0.898222 .. 0.898222

    Block 599 cell size :
        i : 0.0937834 .. 0.0937834
        j : 0.0908075 .. 0.0908075
        k : 1.03031 .. 1.03031

    Block 600 cell size :
        i : 0.215533 .. 0.215533
        j : 0.0673117 .. 0.0673117
        k : 1.03099 .. 1.03099

    Block 601 cell size :
        i : 0.215533 .. 0.215533
        j : 0.0680058 .. 0.0680058
        k : 1.16924 .. 1.16924

    Block 602 cell size :
        i : 0.215533 .. 0.215533
        j : 0.0686712 .. 0.0686712
        k : 1.02665 .. 1.02665

    Block 603 cell size :
        i : 0.206929 .. 0.206929
        j : 0.0679627 .. 0.0679627
        k : 0.893631 .. 0.893631

    Block 604 cell size :
        i : 0.0969145 .. 0.0969145
        j : 0.0938392 .. 0.0938392
        k : 1.0303 .. 1.0303

    Block 605 cell size :
        i : 0.222497 .. 0.222497
        j : 0.0694864 .. 0.0694864
        k : 1.03098 .. 1.03098

    Block 606 cell size :
        i : 0.222497 .. 0.222497
        j : 0.0702029 .. 0.0702029
        k : 1.17385 .. 1.17385

    Block 607 cell size :
        i : 0.222497 .. 0.222497
        j : 0.0708898 .. 0.0708898
        k : 1.02649 .. 1.02649

    Block 608 cell size :
        i : 0.213614 .. 0.213614
        j : 0.0701584 .. 0.0701584
        k : 0.889035 .. 0.889035

    Block 609 cell size :
        i : 0.100046 .. 0.100046
        j : 0.0968709 .. 0.0968709
        k : 1.03029 .. 1.03029

    Block 610 cell size :
        i : 0.22946 .. 0.22946
        j : 0.0716611 .. 0.0716611
        k : 1.03096 .. 1.03096

    Block 611 cell size :
        i : 0.22946 .. 0.22946
        j : 0.0724 .. 0.0724
        k : 1.17845 .. 1.17845

    Block 612 cell size :
        i : 0.22946 .. 0.22946
        j : 0.0731084 .. 0.0731084
        k : 1.02633 .. 1.02633

    Block 613 cell size :
        i : 0.2203 .. 0.2203
        j : 0.0723541 .. 0.0723541
        k : 0.884434 .. 0.884434

    Block 614 cell size :
        i : 0.103177 .. 0.103177
        j : 0.0999027 .. 0.0999027
        k : 1.03027 .. 1.03027

    Block 615 cell size :
        i : 0.236424 .. 0.236424
        j : 0.0738358 .. 0.0738358
        k : 1.03094 .. 1.03094

    Block 616 cell size :
        i : 0.236424 .. 0.236424
        j : 0.0745972 .. 0.0745972
        k : 1.18304 .. 1.18304

    Block 617 cell size :
        i : 0.236424 .. 0.236424
        j : 0.075327 .. 0.075327
        k : 1.02616 .. 1.02616

    Block 618 cell size :
        i : 0.226985 .. 0.226985
        j : 0.0745498 .. 0.0745498
[...]
        i : 0.118745 .. 0.118745
        j : 0.0390001 .. 0.0390001
        k : 0.491259 .. 0.491259

    Block 1039 cell size :
        i : 0.055614 .. 0.055614
        j : 0.0538493 .. 0.0538493
        k : 0.570189 .. 0.570189

    Block 1040 cell size :
        i : 0.124844 .. 0.124844
        j : 0.038989 .. 0.038989
        k : 0.56609 .. 0.56609

    Block 1041 cell size :
        i : 0.124844 .. 0.124844
        j : 0.0393911 .. 0.0393911
        k : 0.628756 .. 0.628756

    Block 1042 cell size :
        i : 0.124844 .. 0.124844
        j : 0.0397765 .. 0.0397765
        k : 0.538214 .. 0.538214

    Block 1043 cell size :
        i : 0.11986 .. 0.11986
        j : 0.0393661 .. 0.0393661
        k : 0.478834 .. 0.478834

    Block 1044 cell size :
        i : 0.0561358 .. 0.0561358
        j : 0.0543545 .. 0.0543545
        k : 0.558294 .. 0.558294

    Block 1045 cell size :
        i : 0.126004 .. 0.126004
        j : 0.0393515 .. 0.0393515
        k : 0.554805 .. 0.554805

    Block 1046 cell size :
        i : 0.126004 .. 0.126004
        j : 0.0397572 .. 0.0397572
        k : 0.61726 .. 0.61726

    Block 1047 cell size :
        i : 0.126004 .. 0.126004
        j : 0.0401462 .. 0.0401462
        k : 0.525702 .. 0.525702

    Block 1048 cell size :
        i : 0.120974 .. 0.120974
        j : 0.039732 .. 0.039732
        k : 0.466602 .. 0.466602

    Block 1049 cell size :
        i : 0.0566577 .. 0.0566577
        j : 0.0548598 .. 0.0548598
        k : 0.546563 .. 0.546563

    Block 1050 cell size :
        i : 0.127165 .. 0.127165
        j : 0.0397139 .. 0.0397139
        k : 0.543727 .. 0.543727

    Block 1051 cell size :
        i : 0.127165 .. 0.127165
        j : 0.0401234 .. 0.0401234
        k : 0.605918 .. 0.605918

    Block 1052 cell size :
        i : 0.127165 .. 0.127165
        j : 0.040516 .. 0.040516
        k : 0.513338 .. 0.513338

    Block 1053 cell size :
        i : 0.122088 .. 0.122088
        j : 0.040098 .. 0.040098
        k : 0.454577 .. 0.454577

    Block 1054 cell size :
        i : 0.0571795 .. 0.0571795
        j : 0.0553651 .. 0.0553651
        k : 0.535009 .. 0.535009

    Block 1055 cell size :
        i : 0.128325 .. 0.128325
        j : 0.0400764 .. 0.0400764
        k : 0.53287 .. 0.53287

    Block 1056 cell size :
        i : 0.128325 .. 0.128325
        j : 0.0404896 .. 0.0404896
        k : 0.594741 .. 0.594741

    Block 1057 cell size :
        i : 0.128325 .. 0.128325
        j : 0.0408858 .. 0.0408858
        k : 0.501137 .. 0.501137

    Block 1058 cell size :
        i : 0.123202 .. 0.123202
        j : 0.0404639 .. 0.0404639
        k : 0.442774 .. 0.442774

    Block 1059 cell size :
        i : 0.0577014 .. 0.0577014
        j : 0.0558704 .. 0.0558704
        k : 0.523643 .. 0.523643

    Block 1060 cell size :
        i : 0.129486 .. 0.129486
        j : 0.0404388 .. 0.0404388
        k : 0.52225 .. 0.52225

    Block 1061 cell size :
        i : 0.129486 .. 0.129486
        j : 0.0408558 .. 0.0408558
        k : 0.583744 .. 0.583744

    Block 1062 cell size :
        i : 0.129486 .. 0.129486
        j : 0.0412555 .. 0.0412555
        k : 0.489113 .. 0.489113

    Block 1063 cell size :
        i : 0.124317 .. 0.124317
        j : 0.0408299 .. 0.0408299
        k : 0.431212 .. 0.431212

    Block 1064 cell size :
        i : 0.0582232 .. 0.0582232
        j : 0.0563757 .. 0.0563757
        k : 0.512476 .. 0.512476

    Block 1065 cell size :
        i : 0.130646 .. 0.130646
        j : 0.0408013 .. 0.0408013
        k : 0.511883 .. 0.511883

    Block 1066 cell size :
        i : 0.130646 .. 0.130646
        j : 0.041222 .. 0.041222
        k : 0.572941 .. 0.572941

    Block 1067 cell size :
        i : 0.130646 .. 0.130646
        j : 0.0416253 .. 0.0416253
        k : 0.477283 .. 0.477283

    Block 1068 cell size :
        i : 0.125431 .. 0.125431
        j : 0.0411958 .. 0.0411958
        k : 0.419909 .. 0.419909

    Block 1069 cell size :
        i : 0.0587451 .. 0.0587451
        j : 0.056881 .. 0.056881
        k : 0.501524 .. 0.501524

    Block 1070 cell size :
        i : 0.131807 .. 0.131807
        j : 0.0411637 .. 0.0411637
        k : 0.501785 .. 0.501785

    Block 1071 cell size :
        i : 0.131807 .. 0.131807
        j : 0.0415882 .. 0.0415882
        k : 0.562349 .. 0.562349

    Block 1072 cell size :
        i : 0.131807 .. 0.131807
        j : 0.0419951 .. 0.0419951
        k : 0.465666 .. 0.465666

    Block 1073 cell size :
        i : 0.126545 .. 0.126545
        j : 0.0415618 .. 0.0415618
        k : 0.408885 .. 0.408885

    Block 1074 cell size :
        i : 0.0592669 .. 0.0592669
        j : 0.0573863 .. 0.0573863
        k : 0.4908 .. 0.4908

    Block 1075 cell size :
        i : 0.132968 .. 0.132968
        j : 0.0415262 .. 0.0415262
        k : 0.491977 .. 0.491977

    Block 1076 cell size :
        i : 0.132968 .. 0.132968
        j : 0.0419544 .. 0.0419544
        k : 0.551988 .. 0.551988

    Block 1077 cell size :
        i : 0.132968 .. 0.132968
        j : 0.0423649 .. 0.0423649
        k : 0.454284 .. 0.454284

    Block 1078 cell size :
        i : 0.127659 .. 0.127659
        j : 0.0419277 .. 0.0419277
        k : 0.398162 .. 0.398162

    Block 1079 cell size :
        i : 0.0597888 .. 0.0597888
        j : 0.0578916 .. 0.0578916
        k : 0.480318 .. 0.480318

    Block 1080 cell size :
        i : 0.134128 .. 0.134128
        j : 0.0418886 .. 0.0418886
        k : 0.482476 .. 0.482476

    Block 1081 cell size :
        i : 0.134128 .. 0.134128
        j : 0.0423205 .. 0.0423205
        k : 0.541878 .. 0.541878

    Block 1082 cell size :
        i : 0.134128 .. 0.134128
        j : 0.0427346 .. 0.0427346
        k : 0.443161 .. 0.443161

    Block 1083 cell size :
        i : 0.128774 .. 0.128774
        j : 0.0422937 .. 0.0422937
        k : 0.387764 .. 0.387764

    Block 1084 cell size :
        i : 0.0603106 .. 0.0603106
        j : 0.0583969 .. 0.0583969
        k : 0.470097 .. 0.470097

    Block 1085 cell size :
        i : 0.135289 .. 0.135289
        j : 0.042251 .. 0.042251
        k : 0.473304 .. 0.473304

    Block 1086 cell size :
        i : 0.135289 .. 0.135289
        j : 0.0426867 .. 0.0426867
        k : 0.532043 .. 0.532043

    Block 1087 cell size :
        i : 0.135289 .. 0.135289
        j : 0.0431044 .. 0.0431044
        k : 0.432327 .. 0.432327

    Block 1088 cell size :
        i : 0.129888 .. 0.129888
        j : 0.0426596 .. 0.0426596
        k : 0.377718 .. 0.377718

    Block 1089 cell size :
        i : 0.0608325 .. 0.0608325
        j : 0.0589021 .. 0.0589021
        k : 0.460152 .. 0.460152

    Block 1090 cell size :
        i : 0.136449 .. 0.136449
        j : 0.0426135 .. 0.0426135
        k : 0.464482 .. 0.464482

    Block 1091 cell size :
        i : 0.136449 .. 0.136449
        j : 0.0430529 .. 0.0430529
        k : 0.522511 .. 0.522511

    Block 1092 cell size :
        i : 0.136449 .. 0.136449
        j : 0.0434742 .. 0.0434742
        k : 0.421813 .. 0.421813

    Block 1093 cell size :
        i : 0.131002 .. 0.131002
        j : 0.0430256 .. 0.0430256
        k : 0.368052 .. 0.368052

    Block 1094 cell size :
        i : 0.0613543 .. 0.0613543
        j : 0.0594074 .. 0.0594074
        k : 0.450501 .. 0.450501

    Block 1095 cell size :
        i : 0.13761 .. 0.13761
        j : 0.0429759 .. 0.0429759
        k : 0.456034 .. 0.456034

    Block 1096 cell size :
        i : 0.13761 .. 0.13761
        j : 0.0434191 .. 0.0434191
        k : 0.51331 .. 0.51331

    Block 1097 cell size :
        i : 0.13761 .. 0.13761
        j : 0.0438439 .. 0.0438439
        k : 0.411657 .. 0.411657

    Block 1098 cell size :
        i : 0.132116 .. 0.132116
        j : 0.0433916 .. 0.0433916
        k : 0.358797 .. 0.358797

    Block 1099 cell size :
        i : 0.0618762 .. 0.0618762
        j : 0.0599127 .. 0.0599127
        k : 0.441163 .. 0.441163

    Block 1100 cell size :
        i : 0.13877 .. 0.13877
        j : 0.0433384 .. 0.0433384
        k : 0.447982 .. 0.447982

    Block 1101 cell size :
        i : 0.13877 .. 0.13877
        j : 0.0437853 .. 0.0437853
        k : 0.504476 .. 0.504476

    Block 1102 cell size :
        i : 0.13877 .. 0.13877
        j : 0.0442137 .. 0.0442137
        k : 0.4019 .. 0.4019

    Block 1103 cell size :
        i : 0.13323 .. 0.13323
        j : 0.0437575 .. 0.0437575
        k : 0.349985 .. 0.349985

    Block 1104 cell size :
        i : 0.062398 .. 0.062398
        j : 0.060418 .. 0.060418
        k : 0.432158 .. 0.432158

    Block 1105 cell size :
        i : 0.139931 .. 0.139931
        j : 0.0437008 .. 0.0437008
        k : 0.440353 .. 0.440353

    Block 1106 cell size :
        i : 0.139931 .. 0.139931
        j : 0.0441515 .. 0.0441515
        k : 0.496048 .. 0.496048

    Block 1107 cell size :
        i : 0.139931 .. 0.139931
        j : 0.0445835 .. 0.0445835
        k : 0.392593 .. 0.392593

    Block 1108 cell size :
        i : 0.134345 .. 0.134345
        j : 0.0441235 .. 0.0441235
        k : 0.341654 .. 0.341654

    Block 1109 cell size :
        i : 0.0629199 .. 0.0629199
        j : 0.0609233 .. 0.0609233
        k : 0.423506 .. 0.423506

    Block 1110 cell size :
        i : 0.141091 .. 0.141091
        j : 0.0440633 .. 0.0440633
        k : 0.43317 .. 0.43317

    Block 1111 cell size :
        i : 0.141091 .. 0.141091
        j : 0.0445177 .. 0.0445177
        k : 0.488069 .. 0.488069

    Block 1112 cell size :
        i : 0.141091 .. 0.141091
        j : 0.0449532 .. 0.0449532
        k : 0.38379 .. 0.38379

    Block 1113 cell size :
        i : 0.135459 .. 0.135459
        j : 0.0444894 .. 0.0444894
        k : 0.333843 .. 0.333843

    Block 1114 cell size :
        i : 0.0634417 .. 0.0634417
        j : 0.0614286 .. 0.0614286
        k : 0.415227 .. 0.415227

    Block 1115 cell size :
        i : 0.142252 .. 0.142252
        j : 0.0444257 .. 0.0444257
        k : 0.426461 .. 0.426461

    Block 1116 cell size :
        i : 0.142252 .. 0.142252
        j : 0.0448838 .. 0.0448838
        k : 0.480588 .. 0.480588

    Block 1117 cell size :
        i : 0.142252 .. 0.142252
        j : 0.045323 .. 0.045323
        k : 0.375557 .. 0.375557

    Block 1118 cell size :
        i : 0.136573 .. 0.136573
        j : 0.0448554 .. 0.0448554
        k : 0.326594 .. 0.326594

    Block 1119 cell size :
        i : 0.0639636 .. 0.0639636
        j : 0.0619339 .. 0.0619339
        k : 0.407343 .. 0.407343

    Block 1120 cell size :
        i : 0.143413 .. 0.143413
        j : 0.0447882 .. 0.0447882
        k : 0.420253 .. 0.420253

    Block 1121 cell size :
        i : 0.143413 .. 0.143413
        j : 0.04525 .. 0.04525
        k : 0.473663 .. 0.473663

    Block 1122 cell size :
        i : 0.143413 .. 0.143413
        j : 0.0456928 .. 0.0456928
        k : 0.367968 .. 0.367968

    Block 1123 cell size :
        i : 0.137687 .. 0.137687
        j : 0.0452213 .. 0.0452213
        k : 0.319954 .. 0.319954

    Block 1124 cell size :
        i : 0.0644854 .. 0.0644854
        j : 0.0624392 .. 0.0624392
        k : 0.399873 .. 0.399873

    Block 1125 cell size :
        i : 0.144573 .. 0.144573
        j : 0.0451506 .. 0.0451506
        k : 0.414572 .. 0.414572

    Block 1126 cell size :
        i : 0.144573 .. 0.144573
        j : 0.0456162 .. 0.0456162
        k : 0.467355 .. 0.467355

    Block 1127 cell size :
        i : 0.144573 .. 0.144573
        j : 0.0460625 .. 0.0460625
        k : 0.361105 .. 0.361105

    Block 1128 cell size :
        i : 0.138802 .. 0.138802
        j : 0.0455873 .. 0.0455873
        k : 0.313973 .. 0.313973

    Block 1129 cell size :
        i : 0.0650072 .. 0.0650072
        j : 0.0629444 .. 0.0629444
        k : 0.39284 .. 0.39284

    Block 1130 cell size :
        i : 0.145734 .. 0.145734
        j : 0.0455131 .. 0.0455131
        k : 0.409445 .. 0.409445

    Block 1131 cell size :
        i : 0.145734 .. 0.145734
        j : 0.0459824 .. 0.0459824
        k : 0.461734 .. 0.461734

    Block 1132 cell size :
        i : 0.145734 .. 0.145734
        j : 0.0464323 .. 0.0464323
        k : 0.355065 .. 0.355065

    Block 1133 cell size :
        i : 0.139916 .. 0.139916
        j : 0.0459532 .. 0.0459532
        k : 0.308703 .. 0.308703

    Block 1134 cell size :
        i : 0.0655291 .. 0.0655291
        j : 0.0634497 .. 0.0634497
        k : 0.386261 .. 0.386261

    Block 1135 cell size :
        i : 0.146894 .. 0.146894
        j : 0.0458755 .. 0.0458755
        k : 0.404897 .. 0.404897

    Block 1136 cell size :
        i : 0.146894 .. 0.146894
        j : 0.0463486 .. 0.0463486
        k : 0.456876 .. 0.456876

    Block 1137 cell size :
        i : 0.146894 .. 0.146894
        j : 0.0468021 .. 0.0468021
        k : 0.34995 .. 0.34995

    Block 1138 cell size :
        i : 0.14103 .. 0.14103
        j : 0.0463192 .. 0.0463192
        k : 0.3042 .. 0.3042

    Block 1139 cell size :
        i : 0.0660509 .. 0.0660509
        j : 0.063955 .. 0.063955
        k : 0.380156 .. 0.380156

    Block 1140 cell size :
        i : 0.148055 .. 0.148055
        j : 0.046238 .. 0.046238
        k : 0.400949 .. 0.400949

    Block 1141 cell size :
        i : 0.148055 .. 0.148055
        j : 0.0467148 .. 0.0467148
        k : 0.452858 .. 0.452858

    Block 1142 cell size :
        i : 0.148055 .. 0.148055
        j : 0.0471718 .. 0.0471718
        k : 0.345872 .. 0.345872

    Block 1143 cell size :
        i : 0.142144 .. 0.142144
        j : 0.0466851 .. 0.0466851
        k : 0.30052 .. 0.30052

    Block 1144 cell size :
        i : 0.0665728 .. 0.0665728
        j : 0.0644603 .. 0.0644603
        k : 0.374541 .. 0.374541

    Block 1145 cell size :
        i : 0.149215 .. 0.149215
        j : 0.0466004 .. 0.0466004
        k : 0.397615 .. 0.397615

    Block 1146 cell size :
        i : 0.149215 .. 0.149215
        j : 0.047081 .. 0.047081
        k : 0.449758 .. 0.449758

    Block 1147 cell size :
        i : 0.149215 .. 0.149215
        j : 0.0475416 .. 0.0475416
        k : 0.342945 .. 0.342945

    Block 1148 cell size :
        i : 0.143259 .. 0.143259
        j : 0.0470511 .. 0.0470511
        k : 0.297714 .. 0.297714

    Block 1149 cell size :
        i : 0.0670946 .. 0.0670946
        j : 0.0649656 .. 0.0649656
        k : 0.369427 .. 0.369427

    Block 1150 cell size :
        i : 0.150376 .. 0.150376
        j : 0.0469629 .. 0.0469629
        k : 0.394899 .. 0.394899

    Block 1151 cell size :
        i : 0.150376 .. 0.150376
        j : 0.0474471 .. 0.0474471
        k : 0.447644 .. 0.447644

    Block 1152 cell size :
        i : 0.150376 .. 0.150376
        j : 0.0479114 .. 0.0479114
        k : 0.341276 .. 0.341276

    Block 1153 cell size :
        i : 0.144373 .. 0.144373
        j : 0.047417 .. 0.047417
        k : 0.295822 .. 0.295822

    Block 1154 cell size :
        i : 0.0676165 .. 0.0676165
        j : 0.0654709 .. 0.0654709
        k : 0.364821 .. 0.364821

    Block 1155 cell size :
        i : 0.151537 .. 0.151537
        j : 0.0473253 .. 0.0473253
        k : 0.39278 .. 0.39278

    Block 1156 cell size :
        i : 0.151537 .. 0.151537
        j : 0.0478133 .. 0.0478133
        k : 0.446561 .. 0.446561

    Block 1157 cell size :
        i : 0.151537 .. 0.151537
        j : 0.0482811 .. 0.0482811
        k : 0.340948 .. 0.340948

    Block 1158 cell size :
        i : 0.145487 .. 0.145487
        j : 0.047783 .. 0.047783
        k : 0.294858 .. 0.294858

    Block 1159 cell size :
        i : 0.0681383 .. 0.0681383
        j : 0.0659762 .. 0.0659762
        k : 0.360723 .. 0.360723

    Block 1160 cell size :
        i : 0.152697 .. 0.152697
        j : 0.0476878 .. 0.0476878
        k : 0.391207 .. 0.391207

    Block 1161 cell size :
        i : 0.152697 .. 0.152697
        j : 0.0481795 .. 0.0481795
        k : 0.446515 .. 0.446515

    Block 1162 cell size :
        i : 0.152697 .. 0.152697
        j : 0.0486509 .. 0.0486509
        k : 0.341998 .. 0.341998

    Block 1163 cell size :
        i : 0.146601 .. 0.146601
        j : 0.0481489 .. 0.0481489
        k : 0.294793 .. 0.294793

    Block 1164 cell size :
        i : 0.0686602 .. 0.0686602
        j : 0.0664815 .. 0.0664815
        k : 0.35712 .. 0.35712

    Block 1165 cell size :
        i : 0.153858 .. 0.153858
        j : 0.0480502 .. 0.0480502
        k : 0.390076 .. 0.390076

    Block 1166 cell size :
        i : 0.153858 .. 0.153858
        j : 0.0485457 .. 0.0485457
        k : 0.447445 .. 0.447445

    Block 1167 cell size :
        i : 0.153858 .. 0.153858
        j : 0.0490207 .. 0.0490207
        k : 0.344387 .. 0.344387

    Block 1168 cell size :
        i : 0.147716 .. 0.147716
        j : 0.0485149 .. 0.0485149
        k : 0.295529 .. 0.295529

    Block 1169 cell size :
        i : 0.069182 .. 0.069182
        j : 0.0669867 .. 0.0669867
        k : 0.353984 .. 0.353984

    Block 1170 cell size :
        i : 0.155018 .. 0.155018
        j : 0.0484127 .. 0.0484127
        k : 0.389223 .. 0.389223

    Block 1171 cell size :
        i : 0.155018 .. 0.155018
        j : 0.0489119 .. 0.0489119
        k : 0.449205 .. 0.449205

    Block 1172 cell size :
        i : 0.155018 .. 0.155018
        j : 0.0493904 .. 0.0493904
        k : 0.347974 .. 0.347974

    Block 1173 cell size :
        i : 0.14883 .. 0.14883
        j : 0.0488808 .. 0.0488808
        k : 0.296879 .. 0.296879

    Block 1174 cell size :
        i : 0.0697039 .. 0.0697039
        j : 0.067492 .. 0.067492
        k : 0.351273 .. 0.351273

    Block 1175 cell size :
        i : 0.156179 .. 0.156179
        j : 0.0487751 .. 0.0487751
        k : 0.388415 .. 0.388415

    Block 1176 cell size :
        i : 0.156179 .. 0.156179
        j : 0.0492781 .. 0.0492781
        k : 0.451555 .. 0.451555

    Block 1177 cell size :
        i : 0.156179 .. 0.156179
        j : 0.0497602 .. 0.0497602
        k : 0.352496 .. 0.352496

    Block 1178 cell size :
        i : 0.149944 .. 0.149944
        j : 0.0492468 .. 0.0492468
        k : 0.298556 .. 0.298556

    Block 1179 cell size :
        i : 0.0702257 .. 0.0702257
        j : 0.0679973 .. 0.0679973
        k : 0.348925 .. 0.348925

    Block 1180 cell size :
        i : 0.157339 .. 0.157339
        j : 0.0491376 .. 0.0491376
        k : 0.387375 .. 0.387375

    Block 1181 cell size :
        i : 0.157339 .. 0.157339
        j : 0.0496442 .. 0.0496442
        k : 0.454173 .. 0.454173

    Block 1182 cell size :
        i : 0.157339 .. 0.157339
        j : 0.05013 .. 0.05013
        k : 0.357586 .. 0.357586

    Block 1183 cell size :
        i : 0.151058 .. 0.151058
        j : 0.0496128 .. 0.0496128
        k : 0.300194 .. 0.300194

    Block 1184 cell size :
        i : 0.0707476 .. 0.0707476
        j : 0.0685026 .. 0.0685026
        k : 0.346873 .. 0.346873

    Block 1185 cell size :
        i : 0.1585 .. 0.1585
        j : 0.0495 .. 0.0495
        k : 0.385833 .. 0.385833

    Block 1186 cell size :
        i : 0.1585 .. 0.1585
        j : 0.0500104 .. 0.0500104
        k : 0.456708 .. 0.456708

    Block 1187 cell size :
        i : 0.1585 .. 0.1585
        j : 0.0504998 .. 0.0504998
        k : 0.362821 .. 0.362821

    Block 1188 cell size :
        i : 0.152172 .. 0.152172
        j : 0.0499787 .. 0.0499787
        k : 0.30141 .. 0.30141

    Block 1189 cell size :
        i : 0.0712694 .. 0.0712694
        j : 0.0690079 .. 0.0690079
        k : 0.345061 .. 0.345061


There are no merge patch pairs

Writing polyMesh with 0 cellZones
----------------
Mesh Information
----------------
  boundingBox: (-11.0102 -10.3923 -0.155414) (11.0542 11.7288 40.4441)
  nPoints: 124519
  nCells: 119000
  nFaces: 362260
  nInternalFaces: 351740
----------------
Patches
----------------
  patch 0 (start: 351740 size: 9520) name: walls
  patch 1 (start: 361260 size: 500) name: inlet
  patch 2 (start: 361760 size: 500) name: outlet

End

