/*---------------------------------------------------------------------------*\
| =========                 |                                                 |
| \\      /  F ield         | OpenFOAM: The Open Source CFD Toolbox           |
|  \\    /   O peration     | Version:  2012                                  |
|   \\  /    A nd           | Website:  www.openfoam.com                      |
|    \\/     M anipulation  |                                                 |
\*---------------------------------------------------------------------------*/
Build  : _269d0ffd5c-20210619 OPENFOAM=2012 patch=210618
Arch   : "LSB;label=32;scalar=64"
Exec   : blockMesh
Date   : Jul 11 2022
Time   : 18:35:50
Host   : f485359ed3ce
PID    : 97944
I/O    : uncollated
Case   : /root/pulsed-reactor-optimisation/mesh_generation/output_mesh
nProcs : 1
trapFpe: Floating point exception trapping enabled (FOAM_SIGFPE).
fileModificationChecking : Monitoring run-time modified files using timeStampMaster (fileModificationSkew 5, maxFileModificationPolls 20)
allowSystemOperations : Allowing user-supplied system call operations

// * * * * * * * * * * * * * * * * * * * * * * * * * * * * * * * * * * * * * //
Create time

Creating block mesh from "system/blockMeshDict"
Creating block edges
Creating block faces
Creating topology blocks
Creating topology patches

Creating block mesh topology
--> FOAM Warning : 
    From Foam::polyMesh::polyMesh(const Foam::IOobject&, Foam::pointField&&, const cellShapeList&, const faceListList&, const wordList&, const Foam::PtrList<Foam::dictionary>&, const Foam::word&, const Foam::word&, bool)
    in file meshes/polyMesh/polyMeshFromShapeMesh.C at line 920
    Found 10 undefined faces in mesh; adding to default patch defaultFaces

Check topology

	Basic statistics
		Number of internal faces : 4090
		Number of boundary faces : 1270
		Number of defined boundary faces : 1270
		Number of undefined boundary faces : 0
	Checking patch -> block consistency

Creating block offsets
Creating merge list (geometric search)...

Creating polyMesh from blockMesh
Creating patches
Creating cells
Creating points with scale 1
    Block 0 cell size :
        i : 0.23775 .. 0.23775
        j : 0.07425 .. 0.07425
        k : 0.241463 .. 0.241463

    Block 1 cell size :
        i : 0.23775 .. 0.23775
        j : 0.0750156 .. 0.0750156
        k : 0.378104 .. 0.378104

    Block 2 cell size :
        i : 0.23775 .. 0.23775
        j : 0.0757496 .. 0.0757496
        k : 0.239784 .. 0.239784

    Block 3 cell size :
        i : 0.228259 .. 0.228259
        j : 0.0749681 .. 0.0749681
        k : 0.167391 .. 0.167391

    Block 4 cell size :
        i : 0.106904 .. 0.106904
        j : 0.103512 .. 0.103512
        k : 0.194492 .. 0.194492

    Block 5 cell size :
        i : 0.23775 .. 0.23775
        j : 0.07425 .. 0.07425
        k : 0.237141 .. 0.237141

    Block 6 cell size :
        i : 0.23775 .. 0.23775
        j : 0.0750156 .. 0.0750156
        k : 0.377098 .. 0.377098

    Block 7 cell size :
        i : 0.23775 .. 0.23775
        j : 0.0757496 .. 0.0757496
        k : 0.241755 .. 0.241755

    Block 8 cell size :
        i : 0.228259 .. 0.228259
        j : 0.0749681 .. 0.0749681
        k : 0.163759 .. 0.163759

    Block 9 cell size :
        i : 0.106904 .. 0.106904
        j : 0.103512 .. 0.103512
        k : 0.193226 .. 0.193226

    Block 10 cell size :
        i : 0.23775 .. 0.23775
        j : 0.07425 .. 0.07425
        k : 0.232672 .. 0.232672

    Block 11 cell size :
        i : 0.23775 .. 0.23775
        j : 0.0750156 .. 0.0750156
        k : 0.375748 .. 0.375748

    Block 12 cell size :
        i : 0.23775 .. 0.23775
        j : 0.0757496 .. 0.0757496
        k : 0.243258 .. 0.243258

    Block 13 cell size :
        i : 0.228259 .. 0.228259
        j : 0.0749681 .. 0.0749681
        k : 0.159184 .. 0.159184

    Block 14 cell size :
        i : 0.106904 .. 0.106904
        j : 0.103512 .. 0.103512
        k : 0.192345 .. 0.192345

    Block 15 cell size :
        i : 0.23775 .. 0.23775
        j : 0.07425 .. 0.07425
        k : 0.228322 .. 0.228322

    Block 16 cell size :
        i : 0.23775 .. 0.23775
        j : 0.0750156 .. 0.0750156
        k : 0.374256 .. 0.374256

    Block 17 cell size :
        i : 0.23775 .. 0.23775
        j : 0.0757496 .. 0.0757496
        k : 0.244449 .. 0.244449

    Block 18 cell size :
        i : 0.228259 .. 0.228259
        j : 0.0749681 .. 0.0749681
        k : 0.153996 .. 0.153996

    Block 19 cell size :
        i : 0.106904 .. 0.106904
        j : 0.103512 .. 0.103512
        k : 0.191958 .. 0.191958

    Block 20 cell size :
        i : 0.23775 .. 0.23775
        j : 0.07425 .. 0.07425
        k : 0.224355 .. 0.224355

    Block 21 cell size :
        i : 0.23775 .. 0.23775
        j : 0.0750156 .. 0.0750156
        k : 0.37282 .. 0.37282

    Block 22 cell size :
        i : 0.23775 .. 0.23775
        j : 0.0757496 .. 0.0757496
        k : 0.245492 .. 0.245492

    Block 23 cell size :
        i : 0.228259 .. 0.228259
        j : 0.0749681 .. 0.0749681
        k : 0.148546 .. 0.148546

    Block 24 cell size :
        i : 0.106904 .. 0.106904
        j : 0.103512 .. 0.103512
        k : 0.192153 .. 0.192153

    Block 25 cell size :
        i : 0.23775 .. 0.23775
        j : 0.07425 .. 0.07425
        k : 0.220998 .. 0.220998

    Block 26 cell size :
        i : 0.23775 .. 0.23775
        j : 0.0750156 .. 0.0750156
        k : 0.37162 .. 0.37162

    Block 27 cell size :
        i : 0.23775 .. 0.23775
        j : 0.0757496 .. 0.0757496
        k : 0.246535 .. 0.246535

    Block 28 cell size :
        i : 0.228259 .. 0.228259
        j : 0.0749681 .. 0.0749681
        k : 0.143169 .. 0.143169

    Block 29 cell size :
        i : 0.106904 .. 0.106904
        j : 0.103512 .. 0.103512
        k : 0.192996 .. 0.192996

    Block 30 cell size :
        i : 0.23775 .. 0.23775
        j : 0.07425 .. 0.07425
        k : 0.218429 .. 0.218429

    Block 31 cell size :
        i : 0.23775 .. 0.23775
        j : 0.0750156 .. 0.0750156
        k : 0.370801 .. 0.370801

    Block 32 cell size :
        i : 0.23775 .. 0.23775
        j : 0.0757496 .. 0.0757496
        k : 0.247706 .. 0.247706

    Block 33 cell size :
        i : 0.228259 .. 0.228259
        j : 0.0749681 .. 0.0749681
        k : 0.138165 .. 0.138165

    Block 34 cell size :
        i : 0.106904 .. 0.106904
        j : 0.103512 .. 0.103512
        k : 0.194521 .. 0.194521

    Block 35 cell size :
        i : 0.23775 .. 0.23775
        j : 0.07425 .. 0.07425
        k : 0.216768 .. 0.216768

    Block 36 cell size :
        i : 0.23775 .. 0.23775
        j : 0.0750156 .. 0.0750156
        k : 0.370469 .. 0.370469

    Block 37 cell size :
        i : 0.23775 .. 0.23775
        j : 0.0757496 .. 0.0757496
        k : 0.249103 .. 0.249103

    Block 38 cell size :
        i : 0.228259 .. 0.228259
        j : 0.0749681 .. 0.0749681
        k : 0.133786 .. 0.133786

    Block 39 cell size :
        i : 0.106904 .. 0.106904
        j : 0.103512 .. 0.103512
        k : 0.196736 .. 0.196736

    Block 40 cell size :
        i : 0.23775 .. 0.23775
        j : 0.07425 .. 0.07425
        k : 0.244629 .. 0.244629

    Block 41 cell size :
        i : 0.23775 .. 0.23775
        j : 0.0750156 .. 0.0750156
        k : 0.398023 .. 0.398023

    Block 42 cell size :
        i : 0.23775 .. 0.23775
        j : 0.0757496 .. 0.0757496
        k : 0.239126 .. 0.239126

    Block 43 cell size :
        i : 0.228259 .. 0.228259
        j : 0.0749681 .. 0.0749681
        k : 0.145724 .. 0.145724

    Block 44 cell size :
        i : 0.106904 .. 0.106904
        j : 0.103512 .. 0.103512
        k : 0.210801 .. 0.210801

    Block 45 cell size :
        i : 0.23775 .. 0.23775
        j : 0.07425 .. 0.07425
        k : 0.224463 .. 0.224463

    Block 46 cell size :
        i : 0.23775 .. 0.23775
        j : 0.0750156 .. 0.0750156
        k : 0.376662 .. 0.376662

    Block 47 cell size :
        i : 0.23775 .. 0.23775
        j : 0.0757496 .. 0.0757496
        k : 0.245422 .. 0.245422

    Block 48 cell size :
        i : 0.228259 .. 0.228259
        j : 0.0749681 .. 0.0749681
        k : 0.132383 .. 0.132383

    Block 49 cell size :
        i : 0.106904 .. 0.106904
        j : 0.103512 .. 0.103512
        k : 0.20377 .. 0.20377

    Block 50 cell size :
        i : 0.23775 .. 0.23775
        j : 0.07425 .. 0.07425
        k : 0.212908 .. 0.212908

    Block 51 cell size :
        i : 0.23775 .. 0.23775
        j : 0.0750156 .. 0.0750156
        k : 0.363363 .. 0.363363

    Block 52 cell size :
        i : 0.23775 .. 0.23775
        j : 0.0757496 .. 0.0757496
        k : 0.251283 .. 0.251283

    Block 53 cell size :
        i : 0.228259 .. 0.228259
        j : 0.0749681 .. 0.0749681
        k : 0.126303 .. 0.126303

    Block 54 cell size :
        i : 0.106904 .. 0.106904
        j : 0.103512 .. 0.103512
        k : 0.201957 .. 0.201957

    Block 55 cell size :
        i : 0.23775 .. 0.23775
        j : 0.07425 .. 0.07425
        k : 0.214866 .. 0.214866

    Block 56 cell size :
        i : 0.23775 .. 0.23775
        j : 0.0750156 .. 0.0750156
        k : 0.365337 .. 0.365337

    Block 57 cell size :
        i : 0.23775 .. 0.23775
        j : 0.0757496 .. 0.0757496
        k : 0.253665 .. 0.253665

    Block 58 cell size :
        i : 0.228259 .. 0.228259
        j : 0.0749681 .. 0.0749681
        k : 0.125546 .. 0.125546

    Block 59 cell size :
        i : 0.106904 .. 0.106904
        j : 0.103512 .. 0.103512
        k : 0.206355 .. 0.206355

    Block 60 cell size :
        i : 0.23775 .. 0.23775
        j : 0.07425 .. 0.07425
        k : 0.217606 .. 0.217606

    Block 61 cell size :
        i : 0.23775 .. 0.23775
        j : 0.0750156 .. 0.0750156
        k : 0.36784 .. 0.36784

    Block 62 cell size :
        i : 0.23775 .. 0.23775
        j : 0.0757496 .. 0.0757496
        k : 0.25642 .. 0.25642

    Block 63 cell size :
        i : 0.228259 .. 0.228259
        j : 0.0749681 .. 0.0749681
        k : 0.125747 .. 0.125747

    Block 64 cell size :
        i : 0.106904 .. 0.106904
        j : 0.103512 .. 0.103512
        k : 0.211193 .. 0.211193

    Block 65 cell size :
        i : 0.23775 .. 0.23775
        j : 0.07425 .. 0.07425
        k : 0.221052 .. 0.221052

    Block 66 cell size :
        i : 0.23775 .. 0.23775
        j : 0.0750156 .. 0.0750156
        k : 0.370837 .. 0.370837

    Block 67 cell size :
        i : 0.23775 .. 0.23775
        j : 0.0757496 .. 0.0757496
        k : 0.259539 .. 0.259539

    Block 68 cell size :
        i : 0.228259 .. 0.228259
        j : 0.0749681 .. 0.0749681
        k : 0.126863 .. 0.126863

    Block 69 cell size :
        i : 0.106904 .. 0.106904
        j : 0.103512 .. 0.103512
        k : 0.216423 .. 0.216423

    Block 70 cell size :
        i : 0.23775 .. 0.23775
        j : 0.07425 .. 0.07425
        k : 0.225128 .. 0.225128

    Block 71 cell size :
        i : 0.23775 .. 0.23775
        j : 0.0750156 .. 0.0750156
        k : 0.374294 .. 0.374294

    Block 72 cell size :
        i : 0.23775 .. 0.23775
        j : 0.0757496 .. 0.0757496
        k : 0.263008 .. 0.263008

    Block 73 cell size :
        i : 0.228259 .. 0.228259
        j : 0.0749681 .. 0.0749681
        k : 0.128829 .. 0.128829

    Block 74 cell size :
        i : 0.106904 .. 0.106904
        j : 0.103512 .. 0.103512
        k : 0.222002 .. 0.222002

    Block 75 cell size :
        i : 0.23775 .. 0.23775
        j : 0.07425 .. 0.07425
        k : 0.22976 .. 0.22976

    Block 76 cell size :
        i : 0.23775 .. 0.23775
        j : 0.0750156 .. 0.0750156
        k : 0.378175 .. 0.378175

    Block 77 cell size :
        i : 0.23775 .. 0.23775
        j : 0.0757496 .. 0.0757496
        k : 0.266812 .. 0.266812

    Block 78 cell size :
        i : 0.228259 .. 0.228259
        j : 0.0749681 .. 0.0749681
        k : 0.13157 .. 0.13157

    Block 79 cell size :
        i : 0.106904 .. 0.106904
        j : 0.103512 .. 0.103512
        k : 0.227888 .. 0.227888

    Block 80 cell size :
        i : 0.23775 .. 0.23775
        j : 0.07425 .. 0.07425
        k : 0.23488 .. 0.23488

    Block 81 cell size :
        i : 0.23775 .. 0.23775
        j : 0.0750156 .. 0.0750156
        k : 0.382443 .. 0.382443

    Block 82 cell size :
        i : 0.23775 .. 0.23775
        j : 0.0757496 .. 0.0757496
        k : 0.270934 .. 0.270934

    Block 83 cell size :
        i : 0.228259 .. 0.228259
        j : 0.0749681 .. 0.0749681
        k : 0.135008 .. 0.135008

    Block 84 cell size :
        i : 0.106904 .. 0.106904
        j : 0.103512 .. 0.103512
        k : 0.234046 .. 0.234046

    Block 85 cell size :
        i : 0.23775 .. 0.23775
        j : 0.07425 .. 0.07425
        k : 0.240424 .. 0.240424

    Block 86 cell size :
        i : 0.23775 .. 0.23775
        j : 0.0750156 .. 0.0750156
        k : 0.387067 .. 0.387067

    Block 87 cell size :
        i : 0.23775 .. 0.23775
        j : 0.0757496 .. 0.0757496
        k : 0.275356 .. 0.275356

    Block 88 cell size :
        i : 0.228259 .. 0.228259
        j : 0.0749681 .. 0.0749681
        k : 0.139061 .. 0.139061

    Block 89 cell size :
        i : 0.106904 .. 0.106904
        j : 0.103512 .. 0.103512
        k : 0.240442 .. 0.240442

    Block 90 cell size :
        i : 0.23775 .. 0.23775
        j : 0.07425 .. 0.07425
        k : 0.253858 .. 0.253858

    Block 91 cell size :
        i : 0.23775 .. 0.23775
        j : 0.0750156 .. 0.0750156
        k : 0.40855 .. 0.40855

    Block 92 cell size :
        i : 0.23775 .. 0.23775
        j : 0.0757496 .. 0.0757496
        k : 0.274871 .. 0.274871

    Block 93 cell size :
        i : 0.228259 .. 0.228259
        j : 0.0749681 .. 0.0749681
        k : 0.134978 .. 0.134978

    Block 94 cell size :
        i : 0.106904 .. 0.106904
        j : 0.103512 .. 0.103512
        k : 0.249341 .. 0.249341

    Block 95 cell size :
        i : 0.23775 .. 0.23775
        j : 0.07425 .. 0.07425
        k : 0.260638 .. 0.260638

    Block 96 cell size :
        i : 0.23775 .. 0.23775
        j : 0.0750156 .. 0.0750156
        k : 0.417133 .. 0.417133

    Block 97 cell size :
        i : 0.23775 .. 0.23775
        j : 0.0757496 .. 0.0757496
        k : 0.276501 .. 0.276501

    Block 98 cell size :
        i : 0.228259 .. 0.228259
        j : 0.0749681 .. 0.0749681
        k : 0.135538 .. 0.135538

    Block 99 cell size :
        i : 0.106904 .. 0.106904
        j : 0.103512 .. 0.103512
        k : 0.255057 .. 0.255057

    Block 100 cell size :
        i : 0.23775 .. 0.23775
        j : 0.07425 .. 0.07425
        k : 0.255329 .. 0.255329

    Block 101 cell size :
        i : 0.23775 .. 0.23775
        j : 0.0750156 .. 0.0750156
        k : 0.395422 .. 0.395422

    Block 102 cell size :
        i : 0.23775 .. 0.23775
        j : 0.0757496 .. 0.0757496
        k : 0.285637 .. 0.285637

    Block 103 cell size :
        i : 0.228259 .. 0.228259
        j : 0.0749681 .. 0.0749681
        k : 0.153034 .. 0.153034

    Block 104 cell size :
        i : 0.106904 .. 0.106904
        j : 0.103512 .. 0.103512
        k : 0.256775 .. 0.256775

    Block 105 cell size :
        i : 0.23775 .. 0.23775
        j : 0.07425 .. 0.07425
        k : 0.261672 .. 0.261672

    Block 106 cell size :
        i : 0.23775 .. 0.23775
        j : 0.0750156 .. 0.0750156
        k : 0.400959 .. 0.400959

    Block 107 cell size :
        i : 0.23775 .. 0.23775
        j : 0.0757496 .. 0.0757496
        k : 0.290708 .. 0.290708

    Block 108 cell size :
        i : 0.228259 .. 0.228259
        j : 0.0749681 .. 0.0749681
        k : 0.158355 .. 0.158355

    Block 109 cell size :
        i : 0.106904 .. 0.106904
        j : 0.103512 .. 0.103512
        k : 0.263444 .. 0.263444

    Block 110 cell size :
        i : 0.23775 .. 0.23775
        j : 0.07425 .. 0.07425
        k : 0.268191 .. 0.268191

    Block 111 cell size :
        i : 0.23775 .. 0.23775
        j : 0.0750156 .. 0.0750156
        k : 0.40668 .. 0.40668

    Block 112 cell size :
        i : 0.23775 .. 0.23775
        j : 0.0757496 .. 0.0757496
        k : 0.295971 .. 0.295971

    Block 113 cell size :
        i : 0.228259 .. 0.228259
        j : 0.0749681 .. 0.0749681
        k : 0.163949 .. 0.163949

    Block 114 cell size :
        i : 0.106904 .. 0.106904
        j : 0.103512 .. 0.103512
        k : 0.270222 .. 0.270222

    Block 115 cell size :
        i : 0.23775 .. 0.23775
        j : 0.07425 .. 0.07425
        k : 0.274865 .. 0.274865

    Block 116 cell size :
        i : 0.23775 .. 0.23775
        j : 0.0750156 .. 0.0750156
        k : 0.41257 .. 0.41257

    Block 117 cell size :
        i : 0.23775 .. 0.23775
        j : 0.0757496 .. 0.0757496
        k : 0.301412 .. 0.301412

    Block 118 cell size :
        i : 0.228259 .. 0.228259
        j : 0.0749681 .. 0.0749681
        k : 0.169782 .. 0.169782

    Block 119 cell size :
        i : 0.106904 .. 0.106904
        j : 0.103512 .. 0.103512
        k : 0.277099 .. 0.277099

    Block 120 cell size :
        i : 0.23775 .. 0.23775
        j : 0.07425 .. 0.07425
        k : 0.281674 .. 0.281674

    Block 121 cell size :
        i : 0.23775 .. 0.23775
        j : 0.0750156 .. 0.0750156
        k : 0.418614 .. 0.418614

    Block 122 cell size :
        i : 0.23775 .. 0.23775
        j : 0.0757496 .. 0.0757496
        k : 0.30702 .. 0.30702

    Block 123 cell size :
        i : 0.228259 .. 0.228259
        j : 0.0749681 .. 0.0749681
        k : 0.175825 .. 0.175825

    Block 124 cell size :
        i : 0.106904 .. 0.106904
        j : 0.103512 .. 0.103512
        k : 0.284063 .. 0.284063

    Block 125 cell size :
        i : 0.23775 .. 0.23775
        j : 0.07425 .. 0.07425
        k : 0.288603 .. 0.288603

    Block 126 cell size :
        i : 0.23775 .. 0.23775
        j : 0.0750156 .. 0.0750156
        k : 0.424798 .. 0.424798

    Block 127 cell size :
        i : 0.23775 .. 0.23775
        j : 0.0757496 .. 0.0757496
        k : 0.312781 .. 0.312781

    Block 128 cell size :
        i : 0.228259 .. 0.228259
        j : 0.0749681 .. 0.0749681
        k : 0.182052 .. 0.182052

    Block 129 cell size :
        i : 0.106904 .. 0.106904
        j : 0.103512 .. 0.103512
        k : 0.291108 .. 0.291108

    Block 130 cell size :
        i : 0.23775 .. 0.23775
        j : 0.07425 .. 0.07425
        k : 0.295636 .. 0.295636

    Block 131 cell size :
        i : 0.23775 .. 0.23775
        j : 0.0750156 .. 0.0750156
        k : 0.431111 .. 0.431111

    Block 132 cell size :
        i : 0.23775 .. 0.23775
        j : 0.0757496 .. 0.0757496
        k : 0.318687 .. 0.318687

    Block 133 cell size :
        i : 0.228259 .. 0.228259
        j : 0.0749681 .. 0.0749681
        k : 0.188443 .. 0.188443

    Block 134 cell size :
        i : 0.106904 .. 0.106904
        j : 0.103512 .. 0.103512
        k : 0.298225 .. 0.298225

    Block 135 cell size :
        i : 0.23775 .. 0.23775
        j : 0.07425 .. 0.07425
        k : 0.302763 .. 0.302763

    Block 136 cell size :
        i : 0.23775 .. 0.23775
        j : 0.0750156 .. 0.0750156
        k : 0.437543 .. 0.437543

    Block 137 cell size :
        i : 0.23775 .. 0.23775
        j : 0.0757496 .. 0.0757496
        k : 0.324726 .. 0.324726

    Block 138 cell size :
        i : 0.228259 .. 0.228259
        j : 0.0749681 .. 0.0749681
        k : 0.194978 .. 0.194978

    Block 139 cell size :
        i : 0.106904 .. 0.106904
        j : 0.103512 .. 0.103512
        k : 0.305408 .. 0.305408

    Block 140 cell size :
        i : 0.23775 .. 0.23775
        j : 0.07425 .. 0.07425
        k : 0.310854 .. 0.310854

    Block 141 cell size :
        i : 0.23775 .. 0.23775
        j : 0.0750156 .. 0.0750156
        k : 0.448384 .. 0.448384

    Block 142 cell size :
        i : 0.23775 .. 0.23775
        j : 0.0757496 .. 0.0757496
        k : 0.329779 .. 0.329779

    Block 143 cell size :
        i : 0.228259 .. 0.228259
        j : 0.0749681 .. 0.0749681
        k : 0.197561 .. 0.197561

    Block 144 cell size :
        i : 0.106904 .. 0.106904
        j : 0.103512 .. 0.103512
        k : 0.31282 .. 0.31282

    Block 145 cell size :
        i : 0.23775 .. 0.23775
        j : 0.07425 .. 0.07425
        k : 0.322616 .. 0.322616

    Block 146 cell size :
        i : 0.23775 .. 0.23775
        j : 0.0750156 .. 0.0750156
        k : 0.478912 .. 0.478912

    Block 147 cell size :
        i : 0.23775 .. 0.23775
        j : 0.0757496 .. 0.0757496
        k : 0.32974 .. 0.32974

    Block 148 cell size :
        i : 0.228259 .. 0.228259
        j : 0.0749681 .. 0.0749681
        k : 0.181683 .. 0.181683

    Block 149 cell size :
        i : 0.106904 .. 0.106904
        j : 0.103512 .. 0.103512
        k : 0.320636 .. 0.320636

    Block 150 cell size :
        i : 0.23775 .. 0.23775
        j : 0.07425 .. 0.07425
        k : 0.321856 .. 0.321856

    Block 151 cell size :
        i : 0.23775 .. 0.23775
        j : 0.0750156 .. 0.0750156
        k : 0.452181 .. 0.452181

    Block 152 cell size :
        i : 0.23775 .. 0.23775
        j : 0.0757496 .. 0.0757496
        k : 0.339591 .. 0.339591

    Block 153 cell size :
        i : 0.228259 .. 0.228259
        j : 0.0749681 .. 0.0749681
        k : 0.213828 .. 0.213828

    Block 154 cell size :
        i : 0.106904 .. 0.106904
        j : 0.103512 .. 0.103512
        k : 0.324237 .. 0.324237

    Block 155 cell size :
        i : 0.23775 .. 0.23775
        j : 0.07425 .. 0.07425
        k : 0.328725 .. 0.328725

    Block 156 cell size :
        i : 0.23775 .. 0.23775
        j : 0.0750156 .. 0.0750156
        k : 0.458592 .. 0.458592

    Block 157 cell size :
        i : 0.23775 .. 0.23775
        j : 0.0757496 .. 0.0757496
        k : 0.345626 .. 0.345626

    Block 158 cell size :
        i : 0.228259 .. 0.228259
        j : 0.0749681 .. 0.0749681
        k : 0.220229 .. 0.220229

    Block 159 cell size :
        i : 0.106904 .. 0.106904
        j : 0.103512 .. 0.103512
        k : 0.3311 .. 0.3311

    Block 160 cell size :
        i : 0.23775 .. 0.23775
        j : 0.07425 .. 0.07425
        k : 0.335637 .. 0.335637

    Block 161 cell size :
        i : 0.23775 .. 0.23775
        j : 0.0750156 .. 0.0750156
        k : 0.465065 .. 0.465065

    Block 162 cell size :
        i : 0.23775 .. 0.23775
        j : 0.0757496 .. 0.0757496
        k : 0.351741 .. 0.351741

    Block 163 cell size :
        i : 0.228259 .. 0.228259
        j : 0.0749681 .. 0.0749681
        k : 0.226703 .. 0.226703

    Block 164 cell size :
        i : 0.106904 .. 0.106904
        j : 0.103512 .. 0.103512
        k : 0.337998 .. 0.337998

    Block 165 cell size :
        i : 0.23775 .. 0.23775
        j : 0.07425 .. 0.07425
        k : 0.342588 .. 0.342588

    Block 166 cell size :
        i : 0.23775 .. 0.23775
        j : 0.0750156 .. 0.0750156
        k : 0.471595 .. 0.471595

    Block 167 cell size :
        i : 0.23775 .. 0.23775
        j : 0.0757496 .. 0.0757496
        k : 0.35793 .. 0.35793

    Block 168 cell size :
        i : 0.228259 .. 0.228259
        j : 0.0749681 .. 0.0749681
        k : 0.233245 .. 0.233245

    Block 169 cell size :
        i : 0.106904 .. 0.106904
        j : 0.103512 .. 0.103512
        k : 0.344929 .. 0.344929

    Block 170 cell size :
        i : 0.23775 .. 0.23775
        j : 0.07425 .. 0.07425
        k : 0.349575 .. 0.349575

    Block 171 cell size :
        i : 0.23775 .. 0.23775
        j : 0.0750156 .. 0.0750156
        k : 0.478179 .. 0.478179

    Block 172 cell size :
        i : 0.23775 .. 0.23775
        j : 0.0757496 .. 0.0757496
        k : 0.36419 .. 0.36419

    Block 173 cell size :
        i : 0.228259 .. 0.228259
        j : 0.0749681 .. 0.0749681
        k : 0.239849 .. 0.239849

    Block 174 cell size :
        i : 0.106904 .. 0.106904
        j : 0.103512 .. 0.103512
        k : 0.351889 .. 0.351889

    Block 175 cell size :
        i : 0.23775 .. 0.23775
        j : 0.07425 .. 0.07425
        k : 0.356595 .. 0.356595

    Block 176 cell size :
        i : 0.23775 .. 0.23775
        j : 0.0750156 .. 0.0750156
        k : 0.484813 .. 0.484813

    Block 177 cell size :
        i : 0.23775 .. 0.23775
        j : 0.0757496 .. 0.0757496
        k : 0.370515 .. 0.370515

    Block 178 cell size :
        i : 0.228259 .. 0.228259
        j : 0.0749681 .. 0.0749681
        k : 0.246508 .. 0.246508

    Block 179 cell size :
        i : 0.106904 .. 0.106904
        j : 0.103512 .. 0.103512
        k : 0.358878 .. 0.358878

    Block 180 cell size :
        i : 0.23775 .. 0.23775
        j : 0.07425 .. 0.07425
        k : 0.363645 .. 0.363645

    Block 181 cell size :
        i : 0.23775 .. 0.23775
        j : 0.0750156 .. 0.0750156
        k : 0.491494 .. 0.491494

    Block 182 cell size :
        i : 0.23775 .. 0.23775
        j : 0.0757496 .. 0.0757496
        k : 0.376902 .. 0.376902

    Block 183 cell size :
        i : 0.228259 .. 0.228259
        j : 0.0749681 .. 0.0749681
        k : 0.253219 .. 0.253219

    Block 184 cell size :
        i : 0.106904 .. 0.106904
        j : 0.103512 .. 0.103512
        k : 0.365894 .. 0.365894

    Block 185 cell size :
        i : 0.23775 .. 0.23775
        j : 0.07425 .. 0.07425
        k : 0.370722 .. 0.370722

    Block 186 cell size :
        i : 0.23775 .. 0.23775
        j : 0.0750156 .. 0.0750156
        k : 0.498218 .. 0.498218

    Block 187 cell size :
        i : 0.23775 .. 0.23775
        j : 0.0757496 .. 0.0757496
        k : 0.383346 .. 0.383346

    Block 188 cell size :
        i : 0.228259 .. 0.228259
        j : 0.0749681 .. 0.0749681
        k : 0.259978 .. 0.259978

    Block 189 cell size :
        i : 0.106904 .. 0.106904
        j : 0.103512 .. 0.103512
        k : 0.372934 .. 0.372934

    Block 190 cell size :
        i : 0.23775 .. 0.23775
        j : 0.07425 .. 0.07425
        k : 0.377825 .. 0.377825

    Block 191 cell size :
        i : 0.23775 .. 0.23775
        j : 0.0750156 .. 0.0750156
        k : 0.504983 .. 0.504983

    Block 192 cell size :
        i : 0.23775 .. 0.23775
        j : 0.0757496 .. 0.0757496
        k : 0.389844 .. 0.389844

    Block 193 cell size :
        i : 0.228259 .. 0.228259
        j : 0.0749681 .. 0.0749681
        k : 0.266781 .. 0.266781

    Block 194 cell size :
        i : 0.106904 .. 0.106904
        j : 0.103512 .. 0.103512
        k : 0.379997 .. 0.379997

    Block 195 cell size :
        i : 0.23775 .. 0.23775
        j : 0.07425 .. 0.07425
        k : 0.387248 .. 0.387248

    Block 196 cell size :
        i : 0.23775 .. 0.23775
        j : 0.0750156 .. 0.0750156
        k : 0.53534 .. 0.53534

    Block 197 cell size :
        i : 0.23775 .. 0.23775
        j : 0.0757496 .. 0.0757496
        k : 0.39153 .. 0.39153

    Block 198 cell size :
        i : 0.228259 .. 0.228259
        j : 0.0749681 .. 0.0749681
        k : 0.249071 .. 0.249071

    Block 199 cell size :
        i : 0.106904 .. 0.106904
        j : 0.103512 .. 0.103512
        k : 0.387049 .. 0.387049

    Block 200 cell size :
        i : 0.23775 .. 0.23775
        j : 0.07425 .. 0.07425
        k : 0.390618 .. 0.390618

    Block 201 cell size :
        i : 0.23775 .. 0.23775
        j : 0.0750156 .. 0.0750156
        k : 0.519754 .. 0.519754

    Block 202 cell size :
        i : 0.23775 .. 0.23775
        j : 0.0757496 .. 0.0757496
        k : 0.39931 .. 0.39931

    Block 203 cell size :
        i : 0.228259 .. 0.228259
        j : 0.0749681 .. 0.0749681
        k : 0.274456 .. 0.274456

    Block 204 cell size :
        i : 0.106904 .. 0.106904
        j : 0.103512 .. 0.103512
        k : 0.392066 .. 0.392066

    Block 205 cell size :
        i : 0.23775 .. 0.23775
        j : 0.07425 .. 0.07425
        k : 0.396572 .. 0.396572

    Block 206 cell size :
        i : 0.23775 .. 0.23775
        j : 0.0750156 .. 0.0750156
        k : 0.52109 .. 0.52109

    Block 207 cell size :
        i : 0.23775 .. 0.23775
        j : 0.0757496 .. 0.0757496
        k : 0.405892 .. 0.405892

    Block 208 cell size :
        i : 0.228259 .. 0.228259
        j : 0.0749681 .. 0.0749681
        k : 0.285376 .. 0.285376

    Block 209 cell size :
        i : 0.106904 .. 0.106904
        j : 0.103512 .. 0.103512
        k : 0.398345 .. 0.398345

    Block 210 cell size :
        i : 0.23775 .. 0.23775
        j : 0.07425 .. 0.07425
        k : 0.403173 .. 0.403173

    Block 211 cell size :
        i : 0.23775 .. 0.23775
        j : 0.0750156 .. 0.0750156
        k : 0.527482 .. 0.527482

    Block 212 cell size :
        i : 0.23775 .. 0.23775
        j : 0.0757496 .. 0.0757496
        k : 0.412054 .. 0.412054

    Block 213 cell size :
        i : 0.228259 .. 0.228259
        j : 0.0749681 .. 0.0749681
        k : 0.29173 .. 0.29173

    Block 214 cell size :
        i : 0.106904 .. 0.106904
        j : 0.103512 .. 0.103512
        k : 0.404912 .. 0.404912

    Block 215 cell size :
        i : 0.23775 .. 0.23775
        j : 0.07425 .. 0.07425
        k : 0.409789 .. 0.409789

    Block 216 cell size :
        i : 0.23775 .. 0.23775
        j : 0.0750156 .. 0.0750156
        k : 0.533896 .. 0.533896

    Block 217 cell size :
        i : 0.23775 .. 0.23775
        j : 0.0757496 .. 0.0757496
        k : 0.418249 .. 0.418249

    Block 218 cell size :
        i : 0.228259 .. 0.228259
        j : 0.0749681 .. 0.0749681
        k : 0.298111 .. 0.298111

    Block 219 cell size :
        i : 0.106904 .. 0.106904
        j : 0.103512 .. 0.103512
        k : 0.411494 .. 0.411494

    Block 220 cell size :
        i : 0.23775 .. 0.23775
        j : 0.07425 .. 0.07425
        k : 0.416418 .. 0.416418

    Block 221 cell size :
        i : 0.23775 .. 0.23775
        j : 0.0750156 .. 0.0750156
        k : 0.540332 .. 0.540332

    Block 222 cell size :
        i : 0.23775 .. 0.23775
        j : 0.0757496 .. 0.0757496
        k : 0.424475 .. 0.424475

    Block 223 cell size :
        i : 0.228259 .. 0.228259
        j : 0.0749681 .. 0.0749681
        k : 0.304517 .. 0.304517

    Block 224 cell size :
        i : 0.106904 .. 0.106904
        j : 0.103512 .. 0.103512
        k : 0.418088 .. 0.418088

    Block 225 cell size :
        i : 0.23775 .. 0.23775
        j : 0.07425 .. 0.07425
        k : 0.42306 .. 0.42306

    Block 226 cell size :
        i : 0.23775 .. 0.23775
        j : 0.0750156 .. 0.0750156
        k : 0.546788 .. 0.546788

    Block 227 cell size :
        i : 0.23775 .. 0.23775
        j : 0.0757496 .. 0.0757496
        k : 0.430731 .. 0.430731

    Block 228 cell size :
        i : 0.228259 .. 0.228259
        j : 0.0749681 .. 0.0749681
        k : 0.310947 .. 0.310947

    Block 229 cell size :
        i : 0.106904 .. 0.106904
        j : 0.103512 .. 0.103512
        k : 0.424696 .. 0.424696

    Block 230 cell size :
        i : 0.23775 .. 0.23775
        j : 0.07425 .. 0.07425
        k : 0.429714 .. 0.429714

    Block 231 cell size :
        i : 0.23775 .. 0.23775
        j : 0.0750156 .. 0.0750156
        k : 0.553264 .. 0.553264

    Block 232 cell size :
        i : 0.23775 .. 0.23775
        j : 0.0757496 .. 0.0757496
        k : 0.437015 .. 0.437015

    Block 233 cell size :
        i : 0.228259 .. 0.228259
        j : 0.0749681 .. 0.0749681
        k : 0.317399 .. 0.317399

    Block 234 cell size :
        i : 0.106904 .. 0.106904
        j : 0.103512 .. 0.103512
        k : 0.431316 .. 0.431316

    Block 235 cell size :
        i : 0.23775 .. 0.23775
        j : 0.07425 .. 0.07425
        k : 0.43638 .. 0.43638

    Block 236 cell size :
        i : 0.23775 .. 0.23775
        j : 0.0750156 .. 0.0750156
        k : 0.559758 .. 0.559758

    Block 237 cell size :
        i : 0.23775 .. 0.23775
        j : 0.0757496 .. 0.0757496
        k : 0.443326 .. 0.443326

    Block 238 cell size :
        i : 0.228259 .. 0.228259
        j : 0.0749681 .. 0.0749681
        k : 0.323872 .. 0.323872

    Block 239 cell size :
        i : 0.106904 .. 0.106904
        j : 0.103512 .. 0.103512
        k : 0.437947 .. 0.437947

    Block 240 cell size :
        i : 0.23775 .. 0.23775
        j : 0.07425 .. 0.07425
        k : 0.443056 .. 0.443056

    Block 241 cell size :
        i : 0.23775 .. 0.23775
        j : 0.0750156 .. 0.0750156
        k : 0.566269 .. 0.566269

    Block 242 cell size :
        i : 0.23775 .. 0.23775
        j : 0.0757496 .. 0.0757496
        k : 0.449662 .. 0.449662

    Block 243 cell size :
        i : 0.228259 .. 0.228259
        j : 0.0749681 .. 0.0749681
        k : 0.330364 .. 0.330364

    Block 244 cell size :
        i : 0.106904 .. 0.106904
        j : 0.103512 .. 0.103512
        k : 0.44459 .. 0.44459

    Block 245 cell size :
        i : 0.23775 .. 0.23775
        j : 0.07425 .. 0.07425
        k : 0.450361 .. 0.450361

    Block 246 cell size :
        i : 0.23775 .. 0.23775
        j : 0.0750156 .. 0.0750156
        k : 0.586193 .. 0.586193

    Block 247 cell size :
        i : 0.23775 .. 0.23775
        j : 0.0757496 .. 0.0757496
        k : 0.453576 .. 0.453576

    Block 248 cell size :
        i : 0.228259 .. 0.228259
        j : 0.0749681 .. 0.0749681
        k : 0.322315 .. 0.322315

    Block 249 cell size :
        i : 0.106904 .. 0.106904
        j : 0.103512 .. 0.103512
        k : 0.450963 .. 0.450963

    Block 250 cell size :
        i : 0.23775 .. 0.23775
        j : 0.07425 .. 0.07425
        k : 0.455831 .. 0.455831

    Block 251 cell size :
        i : 0.23775 .. 0.23775
        j : 0.0750156 .. 0.0750156
        k : 0.58851 .. 0.58851

    Block 252 cell size :
        i : 0.23775 .. 0.23775
        j : 0.0757496 .. 0.0757496
        k : 0.458906 .. 0.458906

    Block 253 cell size :
        i : 0.228259 .. 0.228259
        j : 0.0749681 .. 0.0749681
        k : 0.330651 .. 0.330651

    Block 254 cell size :
        i : 0.106904 .. 0.106904
        j : 0.103512 .. 0.103512
        k : 0.456476 .. 0.456476

    Block 255 cell size :
        i : 0.23775 .. 0.23775
        j : 0.07425 .. 0.07425
        k : 0.460892 .. 0.460892

    Block 256 cell size :
        i : 0.23775 .. 0.23775
        j : 0.0750156 .. 0.0750156
        k : 0.582389 .. 0.582389

    Block 257 cell size :
        i : 0.23775 .. 0.23775
        j : 0.0757496 .. 0.0757496
        k : 0.465666 .. 0.465666

    Block 258 cell size :
        i : 0.228259 .. 0.228259
        j : 0.0749681 .. 0.0749681
        k : 0.348057 .. 0.348057

    Block 259 cell size :
        i : 0.106904 .. 0.106904
        j : 0.103512 .. 0.103512
        k : 0.462098 .. 0.462098

    Block 260 cell size :
        i : 0.23775 .. 0.23775
        j : 0.07425 .. 0.07425
        k : 0.467003 .. 0.467003

    Block 261 cell size :
        i : 0.23775 .. 0.23775
        j : 0.0750156 .. 0.0750156
        k : 0.588402 .. 0.588402

    Block 262 cell size :
        i : 0.23775 .. 0.23775
        j : 0.0757496 .. 0.0757496
        k : 0.471532 .. 0.471532

    Block 263 cell size :
        i : 0.228259 .. 0.228259
        j : 0.0749681 .. 0.0749681
        k : 0.354016 .. 0.354016

    Block 264 cell size :
        i : 0.106904 .. 0.106904
        j : 0.103512 .. 0.103512
        k : 0.468184 .. 0.468184

    Block 265 cell size :
        i : 0.23775 .. 0.23775
        j : 0.07425 .. 0.07425
        k : 0.47312 .. 0.47312

    Block 266 cell size :
        i : 0.23775 .. 0.23775
        j : 0.0750156 .. 0.0750156
        k : 0.594426 .. 0.594426

    Block 267 cell size :
        i : 0.23775 .. 0.23775
        j : 0.0757496 .. 0.0757496
        k : 0.477414 .. 0.477414

    Block 268 cell size :
        i : 0.228259 .. 0.228259
        j : 0.0749681 .. 0.0749681
        k : 0.359988 .. 0.359988

    Block 269 cell size :
        i : 0.106904 .. 0.106904
        j : 0.103512 .. 0.103512
        k : 0.474278 .. 0.474278

    Block 270 cell size :
        i : 0.23775 .. 0.23775
        j : 0.07425 .. 0.07425
        k : 0.479244 .. 0.479244

    Block 271 cell size :
        i : 0.23775 .. 0.23775
        j : 0.0750156 .. 0.0750156
        k : 0.600459 .. 0.600459

    Block 272 cell size :
        i : 0.23775 .. 0.23775
        j : 0.0757496 .. 0.0757496
        k : 0.483311 .. 0.483311

    Block 273 cell size :
        i : 0.228259 .. 0.228259
        j : 0.0749681 .. 0.0749681
        k : 0.365973 .. 0.365973

    Block 274 cell size :
        i : 0.106904 .. 0.106904
        j : 0.103512 .. 0.103512
        k : 0.480378 .. 0.480378

    Block 275 cell size :
        i : 0.23775 .. 0.23775
        j : 0.07425 .. 0.07425
        k : 0.485374 .. 0.485374

    Block 276 cell size :
        i : 0.23775 .. 0.23775
        j : 0.0750156 .. 0.0750156
        k : 0.606501 .. 0.606501

    Block 277 cell size :
        i : 0.23775 .. 0.23775
        j : 0.0757496 .. 0.0757496
        k : 0.489222 .. 0.489222

    Block 278 cell size :
        i : 0.228259 .. 0.228259
        j : 0.0749681 .. 0.0749681
        k : 0.371969 .. 0.371969

    Block 279 cell size :
        i : 0.106904 .. 0.106904
        j : 0.103512 .. 0.103512
        k : 0.486485 .. 0.486485

    Block 280 cell size :
        i : 0.23775 .. 0.23775
        j : 0.07425 .. 0.07425
        k : 0.49151 .. 0.49151

    Block 281 cell size :
        i : 0.23775 .. 0.23775
        j : 0.0750156 .. 0.0750156
        k : 0.612553 .. 0.612553

    Block 282 cell size :
        i : 0.23775 .. 0.23775
        j : 0.0757496 .. 0.0757496
        k : 0.495147 .. 0.495147

    Block 283 cell size :
        i : 0.228259 .. 0.228259
        j : 0.0749681 .. 0.0749681
        k : 0.377976 .. 0.377976

    Block 284 cell size :
        i : 0.106904 .. 0.106904
        j : 0.103512 .. 0.103512
        k : 0.492598 .. 0.492598

    Block 285 cell size :
        i : 0.23775 .. 0.23775
        j : 0.07425 .. 0.07425
        k : 0.497652 .. 0.497652

    Block 286 cell size :
        i : 0.23775 .. 0.23775
        j : 0.0750156 .. 0.0750156
        k : 0.618612 .. 0.618612

    Block 287 cell size :
        i : 0.23775 .. 0.23775
        j : 0.0757496 .. 0.0757496
        k : 0.501086 .. 0.501086

    Block 288 cell size :
        i : 0.228259 .. 0.228259
        j : 0.0749681 .. 0.0749681
        k : 0.383994 .. 0.383994

    Block 289 cell size :
        i : 0.106904 .. 0.106904
        j : 0.103512 .. 0.103512
        k : 0.498717 .. 0.498717

    Block 290 cell size :
        i : 0.23775 .. 0.23775
        j : 0.07425 .. 0.07425
        k : 0.503799 .. 0.503799

    Block 291 cell size :
        i : 0.23775 .. 0.23775
        j : 0.0750156 .. 0.0750156
        k : 0.624681 .. 0.624681

    Block 292 cell size :
        i : 0.23775 .. 0.23775
        j : 0.0757496 .. 0.0757496
        k : 0.507037 .. 0.507037

    Block 293 cell size :
        i : 0.228259 .. 0.228259
        j : 0.0749681 .. 0.0749681
        k : 0.390022 .. 0.390022

    Block 294 cell size :
        i : 0.106904 .. 0.106904
        j : 0.103512 .. 0.103512
        k : 0.504842 .. 0.504842

    Block 295 cell size :
        i : 0.23775 .. 0.23775
        j : 0.07425 .. 0.07425
        k : 0.510055 .. 0.510055

    Block 296 cell size :
        i : 0.23775 .. 0.23775
        j : 0.0750156 .. 0.0750156
        k : 0.636378 .. 0.636378

    Block 297 cell size :
        i : 0.23775 .. 0.23775
        j : 0.0757496 .. 0.0757496
        k : 0.512076 .. 0.512076

    Block 298 cell size :
        i : 0.228259 .. 0.228259
        j : 0.0749681 .. 0.0749681
        k : 0.389861 .. 0.389861

    Block 299 cell size :
        i : 0.106904 .. 0.106904
        j : 0.103512 .. 0.103512
        k : 0.510801 .. 0.510801

    Block 300 cell size :
        i : 0.23775 .. 0.23775
        j : 0.07425 .. 0.07425
        k : 0.515957 .. 0.515957

    Block 301 cell size :
        i : 0.23775 .. 0.23775
        j : 0.0750156 .. 0.0750156
        k : 0.6522 .. 0.6522

    Block 302 cell size :
        i : 0.23775 .. 0.23775
        j : 0.0757496 .. 0.0757496
        k : 0.515773 .. 0.515773

    Block 303 cell size :
        i : 0.228259 .. 0.228259
        j : 0.0749681 .. 0.0749681
        k : 0.384097 .. 0.384097

    Block 304 cell size :
        i : 0.106904 .. 0.106904
        j : 0.103512 .. 0.103512
        k : 0.516138 .. 0.516138

    Block 305 cell size :
        i : 0.23775 .. 0.23775
        j : 0.07425 .. 0.07425
        k : 0.520396 .. 0.520396

    Block 306 cell size :
        i : 0.23775 .. 0.23775
        j : 0.0750156 .. 0.0750156
        k : 0.640097 .. 0.640097

    Block 307 cell size :
        i : 0.23775 .. 0.23775
        j : 0.0757496 .. 0.0757496
        k : 0.522327 .. 0.522327

    Block 308 cell size :
        i : 0.228259 .. 0.228259
        j : 0.0749681 .. 0.0749681
        k : 0.406485 .. 0.406485

    Block 309 cell size :
        i : 0.106904 .. 0.106904
        j : 0.103512 .. 0.103512
        k : 0.521183 .. 0.521183

    Block 310 cell size :
        i : 0.23775 .. 0.23775
        j : 0.07425 .. 0.07425
        k : 0.525951 .. 0.525951

    Block 311 cell size :
        i : 0.23775 .. 0.23775
        j : 0.0750156 .. 0.0750156
        k : 0.645608 .. 0.645608

    Block 312 cell size :
        i : 0.23775 .. 0.23775
        j : 0.0757496 .. 0.0757496
        k : 0.527742 .. 0.527742

    Block 313 cell size :
        i : 0.228259 .. 0.228259
        j : 0.0749681 .. 0.0749681
        k : 0.411942 .. 0.411942

    Block 314 cell size :
        i : 0.106904 .. 0.106904
        j : 0.103512 .. 0.103512
        k : 0.526723 .. 0.526723

    Block 315 cell size :
        i : 0.23775 .. 0.23775
        j : 0.07425 .. 0.07425
        k : 0.531509 .. 0.531509

    Block 316 cell size :
        i : 0.23775 .. 0.23775
        j : 0.0750156 .. 0.0750156
        k : 0.651125 .. 0.651125

    Block 317 cell size :
        i : 0.23775 .. 0.23775
        j : 0.0757496 .. 0.0757496
        k : 0.533165 .. 0.533165

    Block 318 cell size :
        i : 0.228259 .. 0.228259
        j : 0.0749681 .. 0.0749681
        k : 0.417405 .. 0.417405

    Block 319 cell size :
        i : 0.106904 .. 0.106904
        j : 0.103512 .. 0.103512
        k : 0.532267 .. 0.532267

    Block 320 cell size :
        i : 0.23775 .. 0.23775
        j : 0.07425 .. 0.07425
        k : 0.537071 .. 0.537071

    Block 321 cell size :
        i : 0.23775 .. 0.23775
        j : 0.0750156 .. 0.0750156
        k : 0.656646 .. 0.656646

    Block 322 cell size :
        i : 0.23775 .. 0.23775
        j : 0.0757496 .. 0.0757496
        k : 0.538596 .. 0.538596

    Block 323 cell size :
        i : 0.228259 .. 0.228259
        j : 0.0749681 .. 0.0749681
        k : 0.422875 .. 0.422875

    Block 324 cell size :
        i : 0.106904 .. 0.106904
        j : 0.103512 .. 0.103512
        k : 0.537814 .. 0.537814

    Block 325 cell size :
        i : 0.23775 .. 0.23775
        j : 0.07425 .. 0.07425
        k : 0.542636 .. 0.542636

    Block 326 cell size :
        i : 0.23775 .. 0.23775
        j : 0.0750156 .. 0.0750156
        k : 0.662172 .. 0.662172

    Block 327 cell size :
        i : 0.23775 .. 0.23775
        j : 0.0757496 .. 0.0757496
        k : 0.544034 .. 0.544034

    Block 328 cell size :
        i : 0.228259 .. 0.228259
        j : 0.0749681 .. 0.0749681
        k : 0.428352 .. 0.428352

    Block 329 cell size :
        i : 0.106904 .. 0.106904
        j : 0.103512 .. 0.103512
        k : 0.543365 .. 0.543365

    Block 330 cell size :
        i : 0.23775 .. 0.23775
        j : 0.07425 .. 0.07425
        k : 0.548204 .. 0.548204

    Block 331 cell size :
        i : 0.23775 .. 0.23775
        j : 0.0750156 .. 0.0750156
        k : 0.667703 .. 0.667703

    Block 332 cell size :
        i : 0.23775 .. 0.23775
        j : 0.0757496 .. 0.0757496
        k : 0.549479 .. 0.549479

    Block 333 cell size :
        i : 0.228259 .. 0.228259
        j : 0.0749681 .. 0.0749681
        k : 0.433834 .. 0.433834

    Block 334 cell size :
        i : 0.106904 .. 0.106904
        j : 0.103512 .. 0.103512
        k : 0.54892 .. 0.54892

    Block 335 cell size :
        i : 0.23775 .. 0.23775
        j : 0.07425 .. 0.07425
        k : 0.553776 .. 0.553776

    Block 336 cell size :
        i : 0.23775 .. 0.23775
        j : 0.0750156 .. 0.0750156
        k : 0.673238 .. 0.673238

    Block 337 cell size :
        i : 0.23775 .. 0.23775
        j : 0.0757496 .. 0.0757496
        k : 0.554931 .. 0.554931

    Block 338 cell size :
        i : 0.228259 .. 0.228259
        j : 0.0749681 .. 0.0749681
        k : 0.439323 .. 0.439323

    Block 339 cell size :
        i : 0.106904 .. 0.106904
        j : 0.103512 .. 0.103512
        k : 0.554478 .. 0.554478

    Block 340 cell size :
        i : 0.23775 .. 0.23775
        j : 0.07425 .. 0.07425
        k : 0.559351 .. 0.559351

    Block 341 cell size :
        i : 0.23775 .. 0.23775
        j : 0.0750156 .. 0.0750156
        k : 0.678777 .. 0.678777

    Block 342 cell size :
        i : 0.23775 .. 0.23775
        j : 0.0757496 .. 0.0757496
        k : 0.56039 .. 0.56039

    Block 343 cell size :
        i : 0.228259 .. 0.228259
        j : 0.0749681 .. 0.0749681
        k : 0.444817 .. 0.444817

    Block 344 cell size :
        i : 0.106904 .. 0.106904
        j : 0.103512 .. 0.103512
        k : 0.560039 .. 0.560039

    Block 345 cell size :
        i : 0.23775 .. 0.23775
        j : 0.07425 .. 0.07425
        k : 0.564929 .. 0.564929

    Block 346 cell size :
        i : 0.23775 .. 0.23775
        j : 0.0750156 .. 0.0750156
        k : 0.68432 .. 0.68432

    Block 347 cell size :
        i : 0.23775 .. 0.23775
        j : 0.0757496 .. 0.0757496
        k : 0.565855 .. 0.565855

    Block 348 cell size :
        i : 0.228259 .. 0.228259
        j : 0.0749681 .. 0.0749681
        k : 0.450317 .. 0.450317

    Block 349 cell size :
        i : 0.106904 .. 0.106904
        j : 0.103512 .. 0.103512
        k : 0.565604 .. 0.565604

    Block 350 cell size :
        i : 0.23775 .. 0.23775
        j : 0.07425 .. 0.07425
        k : 0.570607 .. 0.570607

    Block 351 cell size :
        i : 0.23775 .. 0.23775
        j : 0.0750156 .. 0.0750156
        k : 0.708967 .. 0.708967

    Block 352 cell size :
        i : 0.23775 .. 0.23775
        j : 0.0757496 .. 0.0757496
        k : 0.568549 .. 0.568549

    Block 353 cell size :
        i : 0.228259 .. 0.228259
        j : 0.0749681 .. 0.0749681
        k : 0.434835 .. 0.434835

    Block 354 cell size :
        i : 0.106904 .. 0.106904
        j : 0.103512 .. 0.103512
        k : 0.570544 .. 0.570544

    Block 355 cell size :
        i : 0.23775 .. 0.23775
        j : 0.07425 .. 0.07425
        k : 0.574585 .. 0.574585

    Block 356 cell size :
        i : 0.23775 .. 0.23775
        j : 0.0750156 .. 0.0750156
        k : 0.693811 .. 0.693811

    Block 357 cell size :
        i : 0.23775 .. 0.23775
        j : 0.0757496 .. 0.0757496
        k : 0.574574 .. 0.574574

    Block 358 cell size :
        i : 0.228259 .. 0.228259
        j : 0.0749681 .. 0.0749681
        k : 0.459223 .. 0.459223

    Block 359 cell size :
        i : 0.106904 .. 0.106904
        j : 0.103512 .. 0.103512
        k : 0.575053 .. 0.575053

    Block 360 cell size :
        i : 0.23775 .. 0.23775
        j : 0.07425 .. 0.07425
        k : 0.579522 .. 0.579522

    Block 361 cell size :
        i : 0.23775 .. 0.23775
        j : 0.0750156 .. 0.0750156
        k : 0.698077 .. 0.698077

    Block 362 cell size :
        i : 0.23775 .. 0.23775
        j : 0.0757496 .. 0.0757496
        k : 0.579499 .. 0.579499

    Block 363 cell size :
        i : 0.228259 .. 0.228259
        j : 0.0749681 .. 0.0749681
        k : 0.464795 .. 0.464795

    Block 364 cell size :
        i : 0.106904 .. 0.106904
        j : 0.103512 .. 0.103512
        k : 0.579999 .. 0.579999

    Block 365 cell size :
        i : 0.23775 .. 0.23775
        j : 0.07425 .. 0.07425
        k : 0.584493 .. 0.584493

    Block 366 cell size :
        i : 0.23775 .. 0.23775
        j : 0.0750156 .. 0.0750156
        k : 0.703032 .. 0.703032

    Block 367 cell size :
        i : 0.23775 .. 0.23775
        j : 0.0757496 .. 0.0757496
        k : 0.58439 .. 0.58439

    Block 368 cell size :
        i : 0.228259 .. 0.228259
        j : 0.0749681 .. 0.0749681
        k : 0.469701 .. 0.469701

    Block 369 cell size :
        i : 0.106904 .. 0.106904
        j : 0.103512 .. 0.103512
        k : 0.584961 .. 0.584961

    Block 370 cell size :
        i : 0.23775 .. 0.23775
        j : 0.07425 .. 0.07425
        k : 0.589465 .. 0.589465

    Block 371 cell size :
        i : 0.23775 .. 0.23775
        j : 0.0750156 .. 0.0750156
        k : 0.707989 .. 0.707989

    Block 372 cell size :
        i : 0.23775 .. 0.23775
        j : 0.0757496 .. 0.0757496
        k : 0.589284 .. 0.589284

    Block 373 cell size :
        i : 0.228259 .. 0.228259
        j : 0.0749681 .. 0.0749681
        k : 0.474611 .. 0.474611

    Block 374 cell size :
        i : 0.106904 .. 0.106904
        j : 0.103512 .. 0.103512
        k : 0.589925 .. 0.589925

    Block 375 cell size :
        i : 0.23775 .. 0.23775
        j : 0.07425 .. 0.07425
        k : 0.594439 .. 0.594439

    Block 376 cell size :
        i : 0.23775 .. 0.23775
        j : 0.0750156 .. 0.0750156
        k : 0.712948 .. 0.712948

    Block 377 cell size :
        i : 0.23775 .. 0.23775
        j : 0.0757496 .. 0.0757496
        k : 0.594183 .. 0.594183

    Block 378 cell size :
        i : 0.228259 .. 0.228259
        j : 0.0749681 .. 0.0749681
        k : 0.479525 .. 0.479525

    Block 379 cell size :
        i : 0.106904 .. 0.106904
        j : 0.103512 .. 0.103512
        k : 0.594891 .. 0.594891

    Block 380 cell size :
        i : 0.23775 .. 0.23775
        j : 0.07425 .. 0.07425
        k : 0.599415 .. 0.599415

    Block 381 cell size :
        i : 0.23775 .. 0.23775
        j : 0.0750156 .. 0.0750156
        k : 0.71791 .. 0.71791

    Block 382 cell size :
        i : 0.23775 .. 0.23775
        j : 0.0757496 .. 0.0757496
        k : 0.599086 .. 0.599086

    Block 383 cell size :
        i : 0.228259 .. 0.228259
        j : 0.0749681 .. 0.0749681
        k : 0.484442 .. 0.484442

    Block 384 cell size :
        i : 0.106904 .. 0.106904
        j : 0.103512 .. 0.103512
        k : 0.599859 .. 0.599859

    Block 385 cell size :
        i : 0.23775 .. 0.23775
        j : 0.07425 .. 0.07425
        k : 0.604393 .. 0.604393

    Block 386 cell size :
        i : 0.23775 .. 0.23775
        j : 0.0750156 .. 0.0750156
        k : 0.722874 .. 0.722874

    Block 387 cell size :
        i : 0.23775 .. 0.23775
        j : 0.0757496 .. 0.0757496
        k : 0.603993 .. 0.603993

    Block 388 cell size :
        i : 0.228259 .. 0.228259
        j : 0.0749681 .. 0.0749681
        k : 0.489363 .. 0.489363

    Block 389 cell size :
        i : 0.106904 .. 0.106904
        j : 0.103512 .. 0.103512
        k : 0.60483 .. 0.60483

    Block 390 cell size :
        i : 0.23775 .. 0.23775
        j : 0.07425 .. 0.07425
        k : 0.609373 .. 0.609373

    Block 391 cell size :
        i : 0.23775 .. 0.23775
        j : 0.0750156 .. 0.0750156
        k : 0.72784 .. 0.72784

    Block 392 cell size :
        i : 0.23775 .. 0.23775
        j : 0.0757496 .. 0.0757496
        k : 0.608903 .. 0.608903

    Block 393 cell size :
        i : 0.228259 .. 0.228259
        j : 0.0749681 .. 0.0749681
        k : 0.494287 .. 0.494287

    Block 394 cell size :
        i : 0.106904 .. 0.106904
        j : 0.103512 .. 0.103512
        k : 0.609802 .. 0.609802

    Block 395 cell size :
        i : 0.23775 .. 0.23775
        j : 0.07425 .. 0.07425
        k : 0.614355 .. 0.614355

    Block 396 cell size :
        i : 0.23775 .. 0.23775
        j : 0.0750156 .. 0.0750156
        k : 0.732809 .. 0.732809

    Block 397 cell size :
        i : 0.23775 .. 0.23775
        j : 0.0757496 .. 0.0757496
        k : 0.613817 .. 0.613817

    Block 398 cell size :
        i : 0.228259 .. 0.228259
        j : 0.0749681 .. 0.0749681
        k : 0.499214 .. 0.499214

    Block 399 cell size :
        i : 0.106904 .. 0.106904
        j : 0.103512 .. 0.103512
        k : 0.614776 .. 0.614776

    Block 400 cell size :
        i : 0.23775 .. 0.23775
        j : 0.07425 .. 0.07425
        k : 0.619289 .. 0.619289

    Block 401 cell size :
        i : 0.23775 .. 0.23775
        j : 0.0750156 .. 0.0750156
        k : 0.750173 .. 0.750173

    Block 402 cell size :
        i : 0.23775 .. 0.23775
        j : 0.0757496 .. 0.0757496
        k : 0.617069 .. 0.617069

    Block 403 cell size :
        i : 0.228259 .. 0.228259
        j : 0.0749681 .. 0.0749681
        k : 0.490527 .. 0.490527

    Block 404 cell size :
        i : 0.106904 .. 0.106904
        j : 0.103512 .. 0.103512
        k : 0.619321 .. 0.619321

    Block 405 cell size :
        i : 0.23775 .. 0.23775
        j : 0.07425 .. 0.07425
        k : 0.623321 .. 0.623321

    Block 406 cell size :
        i : 0.23775 .. 0.23775
        j : 0.0750156 .. 0.0750156
        k : 0.747244 .. 0.747244

    Block 407 cell size :
        i : 0.23775 .. 0.23775
        j : 0.0757496 .. 0.0757496
        k : 0.62153 .. 0.62153

    Block 408 cell size :
        i : 0.228259 .. 0.228259
        j : 0.0749681 .. 0.0749681
        k : 0.501688 .. 0.501688

    Block 409 cell size :
        i : 0.106904 .. 0.106904
        j : 0.103512 .. 0.103512
        k : 0.623459 .. 0.623459

    Block 410 cell size :
        i : 0.23775 .. 0.23775
        j : 0.07425 .. 0.07425
        k : 0.627462 .. 0.627462

    Block 411 cell size :
        i : 0.23775 .. 0.23775
        j : 0.0750156 .. 0.0750156
        k : 0.74528 .. 0.74528

    Block 412 cell size :
        i : 0.23775 .. 0.23775
        j : 0.0757496 .. 0.0757496
        k : 0.626172 .. 0.626172

    Block 413 cell size :
        i : 0.228259 .. 0.228259
        j : 0.0749681 .. 0.0749681
        k : 0.512205 .. 0.512205

    Block 414 cell size :
        i : 0.106904 .. 0.106904
        j : 0.103512 .. 0.103512
        k : 0.62772 .. 0.62772

    Block 415 cell size :
        i : 0.23775 .. 0.23775
        j : 0.07425 .. 0.07425
        k : 0.631828 .. 0.631828

    Block 416 cell size :
        i : 0.23775 .. 0.23775
        j : 0.0750156 .. 0.0750156
        k : 0.749644 .. 0.749644

    Block 417 cell size :
        i : 0.23775 .. 0.23775
        j : 0.0757496 .. 0.0757496
        k : 0.630492 .. 0.630492

    Block 418 cell size :
        i : 0.228259 .. 0.228259
        j : 0.0749681 .. 0.0749681
        k : 0.516528 .. 0.516528

    Block 419 cell size :
        i : 0.106904 .. 0.106904
        j : 0.103512 .. 0.103512
        k : 0.632081 .. 0.632081

    Block 420 cell size :
        i : 0.23775 .. 0.23775
        j : 0.07425 .. 0.07425
        k : 0.636195 .. 0.636195

    Block 421 cell size :
        i : 0.23775 .. 0.23775
        j : 0.0750156 .. 0.0750156
        k : 0.754009 .. 0.754009

    Block 422 cell size :
        i : 0.23775 .. 0.23775
        j : 0.0757496 .. 0.0757496
        k : 0.634814 .. 0.634814

    Block 423 cell size :
        i : 0.228259 .. 0.228259
        j : 0.0749681 .. 0.0749681
        k : 0.520852 .. 0.520852

    Block 424 cell size :
        i : 0.106904 .. 0.106904
        j : 0.103512 .. 0.103512
        k : 0.636445 .. 0.636445

    Block 425 cell size :
        i : 0.23775 .. 0.23775
        j : 0.07425 .. 0.07425
        k : 0.640564 .. 0.640564

    Block 426 cell size :
        i : 0.23775 .. 0.23775
        j : 0.0750156 .. 0.0750156
        k : 0.758375 .. 0.758375

    Block 427 cell size :
        i : 0.23775 .. 0.23775
        j : 0.0757496 .. 0.0757496
        k : 0.639138 .. 0.639138

    Block 428 cell size :
        i : 0.228259 .. 0.228259
        j : 0.0749681 .. 0.0749681
        k : 0.525178 .. 0.525178

    Block 429 cell size :
        i : 0.106904 .. 0.106904
        j : 0.103512 .. 0.103512
        k : 0.640809 .. 0.640809

    Block 430 cell size :
        i : 0.23775 .. 0.23775
        j : 0.07425 .. 0.07425
        k : 0.644933 .. 0.644933

    Block 431 cell size :
        i : 0.23775 .. 0.23775
        j : 0.0750156 .. 0.0750156
        k : 0.762743 .. 0.762743

    Block 432 cell size :
        i : 0.23775 .. 0.23775
        j : 0.0757496 .. 0.0757496
        k : 0.643464 .. 0.643464

    Block 433 cell size :
        i : 0.228259 .. 0.228259
        j : 0.0749681 .. 0.0749681
        k : 0.529507 .. 0.529507

    Block 434 cell size :
        i : 0.106904 .. 0.106904
        j : 0.103512 .. 0.103512
        k : 0.645175 .. 0.645175

    Block 435 cell size :
        i : 0.23775 .. 0.23775
        j : 0.07425 .. 0.07425
        k : 0.649304 .. 0.649304

    Block 436 cell size :
        i : 0.23775 .. 0.23775
        j : 0.0750156 .. 0.0750156
        k : 0.767112 .. 0.767112

    Block 437 cell size :
        i : 0.23775 .. 0.23775
        j : 0.0757496 .. 0.0757496
        k : 0.647792 .. 0.647792

    Block 438 cell size :
        i : 0.228259 .. 0.228259
        j : 0.0749681 .. 0.0749681
        k : 0.533838 .. 0.533838

    Block 439 cell size :
        i : 0.106904 .. 0.106904
        j : 0.103512 .. 0.103512
        k : 0.649542 .. 0.649542

    Block 440 cell size :
        i : 0.23775 .. 0.23775
        j : 0.07425 .. 0.07425
        k : 0.653676 .. 0.653676

    Block 441 cell size :
        i : 0.23775 .. 0.23775
        j : 0.0750156 .. 0.0750156
        k : 0.771482 .. 0.771482

    Block 442 cell size :
        i : 0.23775 .. 0.23775
        j : 0.0757496 .. 0.0757496
        k : 0.652123 .. 0.652123

    Block 443 cell size :
        i : 0.228259 .. 0.228259
        j : 0.0749681 .. 0.0749681
        k : 0.53817 .. 0.53817

    Block 444 cell size :
        i : 0.106904 .. 0.106904
        j : 0.103512 .. 0.103512
        k : 0.65391 .. 0.65391

    Block 445 cell size :
        i : 0.23775 .. 0.23775
        j : 0.07425 .. 0.07425
        k : 0.65805 .. 0.65805

    Block 446 cell size :
        i : 0.23775 .. 0.23775
        j : 0.0750156 .. 0.0750156
        k : 0.775853 .. 0.775853

    Block 447 cell size :
        i : 0.23775 .. 0.23775
        j : 0.0757496 .. 0.0757496
        k : 0.656455 .. 0.656455

    Block 448 cell size :
        i : 0.228259 .. 0.228259
        j : 0.0749681 .. 0.0749681
        k : 0.542505 .. 0.542505

    Block 449 cell size :
        i : 0.106904 .. 0.106904
        j : 0.103512 .. 0.103512
        k : 0.658279 .. 0.658279

    Block 450 cell size :
        i : 0.23775 .. 0.23775
        j : 0.07425 .. 0.07425
        k : 0.662363 .. 0.662363

    Block 451 cell size :
        i : 0.23775 .. 0.23775
        j : 0.0750156 .. 0.0750156
        k : 0.786885 .. 0.786885

    Block 452 cell size :
        i : 0.23775 .. 0.23775
        j : 0.0757496 .. 0.0757496
        k : 0.659958 .. 0.659958

    Block 453 cell size :
        i : 0.228259 .. 0.228259
        j : 0.0749681 .. 0.0749681
        k : 0.539545 .. 0.539545

    Block 454 cell size :
        i : 0.106904 .. 0.106904
        j : 0.103512 .. 0.103512
        k : 0.662417 .. 0.662417

    Block 455 cell size :
        i : 0.23775 .. 0.23775
        j : 0.07425 .. 0.07425
        k : 0.666198 .. 0.666198

    Block 456 cell size :
        i : 0.23775 .. 0.23775
        j : 0.0750156 .. 0.0750156
        k : 0.794404 .. 0.794404

    Block 457 cell size :
        i : 0.23775 .. 0.23775
        j : 0.0757496 .. 0.0757496
        k : 0.66314 .. 0.66314

    Block 458 cell size :
        i : 0.228259 .. 0.228259
        j : 0.0749681 .. 0.0749681
        k : 0.539193 .. 0.539193

    Block 459 cell size :
        i : 0.106904 .. 0.106904
        j : 0.103512 .. 0.103512
        k : 0.666106 .. 0.666106

    Block 460 cell size :
        i : 0.23775 .. 0.23775
        j : 0.07425 .. 0.07425
        k : 0.669619 .. 0.669619

    Block 461 cell size :
        i : 0.23775 .. 0.23775
        j : 0.0750156 .. 0.0750156
        k : 0.786922 .. 0.786922

    Block 462 cell size :
        i : 0.23775 .. 0.23775
        j : 0.0757496 .. 0.0757496
        k : 0.667404 .. 0.667404

    Block 463 cell size :
        i : 0.228259 .. 0.228259
        j : 0.0749681 .. 0.0749681
        k : 0.553956 .. 0.553956

    Block 464 cell size :
        i : 0.106904 .. 0.106904
        j : 0.103512 .. 0.103512
        k : 0.66971 .. 0.66971

    Block 465 cell size :
        i : 0.23775 .. 0.23775
        j : 0.07425 .. 0.07425
        k : 0.673372 .. 0.673372

    Block 466 cell size :
        i : 0.23775 .. 0.23775
        j : 0.0750156 .. 0.0750156
        k : 0.790679 .. 0.790679

    Block 467 cell size :
        i : 0.23775 .. 0.23775
        j : 0.0757496 .. 0.0757496
        k : 0.67113 .. 0.67113

    Block 468 cell size :
        i : 0.228259 .. 0.228259
        j : 0.0749681 .. 0.0749681
        k : 0.557678 .. 0.557678

    Block 469 cell size :
        i : 0.106904 .. 0.106904
        j : 0.103512 .. 0.103512
        k : 0.673461 .. 0.673461

    Block 470 cell size :
        i : 0.23775 .. 0.23775
        j : 0.07425 .. 0.07425
        k : 0.677125 .. 0.677125

    Block 471 cell size :
        i : 0.23775 .. 0.23775
        j : 0.0750156 .. 0.0750156
        k : 0.794436 .. 0.794436

    Block 472 cell size :
        i : 0.23775 .. 0.23775
        j : 0.0757496 .. 0.0757496
        k : 0.674857 .. 0.674857

    Block 473 cell size :
        i : 0.228259 .. 0.228259
        j : 0.0749681 .. 0.0749681
        k : 0.561402 .. 0.561402

    Block 474 cell size :
        i : 0.106904 .. 0.106904
        j : 0.103512 .. 0.103512
        k : 0.677212 .. 0.677212

    Block 475 cell size :
        i : 0.23775 .. 0.23775
        j : 0.07425 .. 0.07425
        k : 0.680879 .. 0.680879

    Block 476 cell size :
        i : 0.23775 .. 0.23775
        j : 0.0750156 .. 0.0750156
        k : 0.798194 .. 0.798194

    Block 477 cell size :
        i : 0.23775 .. 0.23775
        j : 0.0757496 .. 0.0757496
        k : 0.678586 .. 0.678586

    Block 478 cell size :
        i : 0.228259 .. 0.228259
        j : 0.0749681 .. 0.0749681
        k : 0.565126 .. 0.565126

    Block 479 cell size :
        i : 0.106904 .. 0.106904
        j : 0.103512 .. 0.103512
        k : 0.680964 .. 0.680964

    Block 480 cell size :
        i : 0.23775 .. 0.23775
        j : 0.07425 .. 0.07425
        k : 0.684634 .. 0.684634

    Block 481 cell size :
        i : 0.23775 .. 0.23775
        j : 0.0750156 .. 0.0750156
        k : 0.801953 .. 0.801953

    Block 482 cell size :
        i : 0.23775 .. 0.23775
        j : 0.0757496 .. 0.0757496
        k : 0.682315 .. 0.682315

    Block 483 cell size :
        i : 0.228259 .. 0.228259
        j : 0.0749681 .. 0.0749681
        k : 0.568852 .. 0.568852

    Block 484 cell size :
        i : 0.106904 .. 0.106904
        j : 0.103512 .. 0.103512
        k : 0.684717 .. 0.684717

    Block 485 cell size :
        i : 0.23775 .. 0.23775
        j : 0.07425 .. 0.07425
        k : 0.68839 .. 0.68839

    Block 486 cell size :
        i : 0.23775 .. 0.23775
        j : 0.0750156 .. 0.0750156
        k : 0.805712 .. 0.805712

    Block 487 cell size :
        i : 0.23775 .. 0.23775
        j : 0.0757496 .. 0.0757496
        k : 0.686046 .. 0.686046

    Block 488 cell size :
        i : 0.228259 .. 0.228259
        j : 0.0749681 .. 0.0749681
        k : 0.572579 .. 0.572579

    Block 489 cell size :
        i : 0.106904 .. 0.106904
        j : 0.103512 .. 0.103512
        k : 0.688471 .. 0.688471

    Block 490 cell size :
        i : 0.23775 .. 0.23775
        j : 0.07425 .. 0.07425
        k : 0.692146 .. 0.692146

    Block 491 cell size :
        i : 0.23775 .. 0.23775
        j : 0.0750156 .. 0.0750156
        k : 0.809472 .. 0.809472

    Block 492 cell size :
        i : 0.23775 .. 0.23775
        j : 0.0757496 .. 0.0757496
        k : 0.689778 .. 0.689778

    Block 493 cell size :
        i : 0.228259 .. 0.228259
        j : 0.0749681 .. 0.0749681
        k : 0.576308 .. 0.576308

    Block 494 cell size :
        i : 0.106904 .. 0.106904
        j : 0.103512 .. 0.103512
        k : 0.692226 .. 0.692226

    Block 495 cell size :
        i : 0.23775 .. 0.23775
        j : 0.07425 .. 0.07425
        k : 0.695903 .. 0.695903

    Block 496 cell size :
        i : 0.23775 .. 0.23775
        j : 0.0750156 .. 0.0750156
        k : 0.813233 .. 0.813233

    Block 497 cell size :
        i : 0.23775 .. 0.23775
        j : 0.0757496 .. 0.0757496
        k : 0.693511 .. 0.693511

    Block 498 cell size :
        i : 0.228259 .. 0.228259
        j : 0.0749681 .. 0.0749681
        k : 0.580037 .. 0.580037

    Block 499 cell size :
        i : 0.106904 .. 0.106904
        j : 0.103512 .. 0.103512
        k : 0.695981 .. 0.695981

    Block 500 cell size :
        i : 0.23775 .. 0.23775
        j : 0.07425 .. 0.07425
        k : 0.699642 .. 0.699642

    Block 501 cell size :
        i : 0.23775 .. 0.23775
        j : 0.0750156 .. 0.0750156
        k : 0.818579 .. 0.818579

    Block 502 cell size :
        i : 0.23775 .. 0.23775
        j : 0.0757496 .. 0.0757496
        k : 0.69706 .. 0.69706

    Block 503 cell size :
        i : 0.228259 .. 0.228259
        j : 0.0749681 .. 0.0749681
        k : 0.58204 .. 0.58204

    Block 504 cell size :
        i : 0.106904 .. 0.106904
        j : 0.103512 .. 0.103512
        k : 0.699683 .. 0.699683

    Block 505 cell size :
        i : 0.23775 .. 0.23775
        j : 0.07425 .. 0.07425
        k : 0.703161 .. 0.703161

    Block 506 cell size :
        i : 0.23775 .. 0.23775
        j : 0.0750156 .. 0.0750156
        k : 0.835362 .. 0.835362

    Block 507 cell size :
        i : 0.23775 .. 0.23775
        j : 0.0757496 .. 0.0757496
        k : 0.69915 .. 0.69915

    Block 508 cell size :
        i : 0.228259 .. 0.228259
        j : 0.0749681 .. 0.0749681
        k : 0.571367 .. 0.571367

    Block 509 cell size :
        i : 0.106904 .. 0.106904
        j : 0.103512 .. 0.103512
        k : 0.7029 .. 0.7029

    Block 510 cell size :
        i : 0.23775 .. 0.23775
        j : 0.07425 .. 0.07425
        k : 0.705902 .. 0.705902

    Block 511 cell size :
        i : 0.23775 .. 0.23775
        j : 0.0750156 .. 0.0750156
        k : 0.822826 .. 0.822826

    Block 512 cell size :
        i : 0.23775 .. 0.23775
        j : 0.0757496 .. 0.0757496
        k : 0.702979 .. 0.702979

    Block 513 cell size :
        i : 0.228259 .. 0.228259
        j : 0.0749681 .. 0.0749681
        k : 0.589915 .. 0.589915

    Block 514 cell size :
        i : 0.106904 .. 0.106904
        j : 0.103512 .. 0.103512
        k : 0.705859 .. 0.705859

    Block 515 cell size :
        i : 0.23775 .. 0.23775
        j : 0.07425 .. 0.07425
        k : 0.709035 .. 0.709035

    Block 516 cell size :
        i : 0.23775 .. 0.23775
        j : 0.0750156 .. 0.0750156
        k : 0.825966 .. 0.825966

    Block 517 cell size :
        i : 0.23775 .. 0.23775
        j : 0.0757496 .. 0.0757496
        k : 0.706098 .. 0.706098

    Block 518 cell size :
        i : 0.228259 .. 0.228259
        j : 0.0749681 .. 0.0749681
        k : 0.593026 .. 0.593026

    Block 519 cell size :
        i : 0.106904 .. 0.106904
        j : 0.103512 .. 0.103512
        k : 0.708992 .. 0.708992

    Block 520 cell size :
        i : 0.23775 .. 0.23775
        j : 0.07425 .. 0.07425
        k : 0.712169 .. 0.712169

    Block 521 cell size :
        i : 0.23775 .. 0.23775
        j : 0.0750156 .. 0.0750156
        k : 0.829106 .. 0.829106

    Block 522 cell size :
        i : 0.23775 .. 0.23775
        j : 0.0757496 .. 0.0757496
        k : 0.709217 .. 0.709217

    Block 523 cell size :
        i : 0.228259 .. 0.228259
        j : 0.0749681 .. 0.0749681
        k : 0.596139 .. 0.596139

    Block 524 cell size :
        i : 0.106904 .. 0.106904
        j : 0.103512 .. 0.103512
        k : 0.712125 .. 0.712125

    Block 525 cell size :
        i : 0.23775 .. 0.23775
        j : 0.07425 .. 0.07425
        k : 0.715303 .. 0.715303

    Block 526 cell size :
        i : 0.23775 .. 0.23775
        j : 0.0750156 .. 0.0750156
        k : 0.832246 .. 0.832246

    Block 527 cell size :
        i : 0.23775 .. 0.23775
        j : 0.0757496 .. 0.0757496
        k : 0.712337 .. 0.712337

    Block 528 cell size :
        i : 0.228259 .. 0.228259
        j : 0.0749681 .. 0.0749681
        k : 0.599253 .. 0.599253

    Block 529 cell size :
        i : 0.106904 .. 0.106904
        j : 0.103512 .. 0.103512
        k : 0.715259 .. 0.715259

    Block 530 cell size :
        i : 0.23775 .. 0.23775
        j : 0.07425 .. 0.07425
        k : 0.718437 .. 0.718437

    Block 531 cell size :
        i : 0.23775 .. 0.23775
        j : 0.0750156 .. 0.0750156
        k : 0.835387 .. 0.835387

    Block 532 cell size :
        i : 0.23775 .. 0.23775
        j : 0.0757496 .. 0.0757496
        k : 0.715457 .. 0.715457

    Block 533 cell size :
        i : 0.228259 .. 0.228259
        j : 0.0749681 .. 0.0749681
        k : 0.602367 .. 0.602367

    Block 534 cell size :
        i : 0.106904 .. 0.106904
        j : 0.103512 .. 0.103512
        k : 0.718393 .. 0.718393

    Block 535 cell size :
        i : 0.23775 .. 0.23775
        j : 0.07425 .. 0.07425
        k : 0.721572 .. 0.721572

    Block 536 cell size :
        i : 0.23775 .. 0.23775
        j : 0.0750156 .. 0.0750156
        k : 0.838529 .. 0.838529

    Block 537 cell size :
        i : 0.23775 .. 0.23775
        j : 0.0757496 .. 0.0757496
        k : 0.718578 .. 0.718578

    Block 538 cell size :
        i : 0.228259 .. 0.228259
        j : 0.0749681 .. 0.0749681
        k : 0.605482 .. 0.605482

    Block 539 cell size :
        i : 0.106904 .. 0.106904
        j : 0.103512 .. 0.103512
        k : 0.721527 .. 0.721527

    Block 540 cell size :
        i : 0.23775 .. 0.23775
        j : 0.07425 .. 0.07425
        k : 0.724708 .. 0.724708

    Block 541 cell size :
        i : 0.23775 .. 0.23775
        j : 0.0750156 .. 0.0750156
        k : 0.84167 .. 0.84167

    Block 542 cell size :
        i : 0.23775 .. 0.23775
        j : 0.0757496 .. 0.0757496
        k : 0.7217 .. 0.7217

    Block 543 cell size :
        i : 0.228259 .. 0.228259
        j : 0.0749681 .. 0.0749681
        k : 0.608598 .. 0.608598

    Block 544 cell size :
        i : 0.106904 .. 0.106904
        j : 0.103512 .. 0.103512
        k : 0.724662 .. 0.724662

    Block 545 cell size :
        i : 0.23775 .. 0.23775
        j : 0.07425 .. 0.07425
        k : 0.727843 .. 0.727843

    Block 546 cell size :
        i : 0.23775 .. 0.23775
        j : 0.0750156 .. 0.0750156
        k : 0.844812 .. 0.844812

    Block 547 cell size :
        i : 0.23775 .. 0.23775
        j : 0.0757496 .. 0.0757496
        k : 0.724822 .. 0.724822

    Block 548 cell size :
        i : 0.228259 .. 0.228259
        j : 0.0749681 .. 0.0749681
        k : 0.611714 .. 0.611714

    Block 549 cell size :
        i : 0.106904 .. 0.106904
        j : 0.103512 .. 0.103512
        k : 0.727798 .. 0.727798

    Block 550 cell size :
        i : 0.23775 .. 0.23775
        j : 0.07425 .. 0.07425
        k : 0.73098 .. 0.73098

    Block 551 cell size :
        i : 0.23775 .. 0.23775
        j : 0.0750156 .. 0.0750156
        k : 0.847954 .. 0.847954

    Block 552 cell size :
        i : 0.23775 .. 0.23775
        j : 0.0757496 .. 0.0757496
        k : 0.727946 .. 0.727946

    Block 553 cell size :
        i : 0.228259 .. 0.228259
        j : 0.0749681 .. 0.0749681
        k : 0.614831 .. 0.614831

    Block 554 cell size :
        i : 0.106904 .. 0.106904
        j : 0.103512 .. 0.103512
        k : 0.730933 .. 0.730933

    Block 555 cell size :
        i : 0.23775 .. 0.23775
        j : 0.07425 .. 0.07425
        k : 0.733992 .. 0.733992

    Block 556 cell size :
        i : 0.23775 .. 0.23775
        j : 0.0750156 .. 0.0750156
        k : 0.863794 .. 0.863794

    Block 557 cell size :
        i : 0.23775 .. 0.23775
        j : 0.0757496 .. 0.0757496
        k : 0.729734 .. 0.729734

    Block 558 cell size :
        i : 0.228259 .. 0.228259
        j : 0.0749681 .. 0.0749681
        k : 0.604267 .. 0.604267

    Block 559 cell size :
        i : 0.106904 .. 0.106904
        j : 0.103512 .. 0.103512
        k : 0.7337 .. 0.7337

    Block 560 cell size :
        i : 0.23775 .. 0.23775
        j : 0.07425 .. 0.07425
        k : 0.736312 .. 0.736312

    Block 561 cell size :
        i : 0.23775 .. 0.23775
        j : 0.0750156 .. 0.0750156
        k : 0.856086 .. 0.856086

    Block 562 cell size :
        i : 0.23775 .. 0.23775
        j : 0.0757496 .. 0.0757496
        k : 0.732627 .. 0.732627

    Block 563 cell size :
        i : 0.228259 .. 0.228259
        j : 0.0749681 .. 0.0749681
        k : 0.616829 .. 0.616829

    Block 564 cell size :
        i : 0.106904 .. 0.106904
        j : 0.103512 .. 0.103512
        k : 0.736123 .. 0.736123

    Block 565 cell size :
        i : 0.23775 .. 0.23775
        j : 0.07425 .. 0.07425
        k : 0.73876 .. 0.73876

    Block 566 cell size :
        i : 0.23775 .. 0.23775
        j : 0.0750156 .. 0.0750156
        k : 0.855398 .. 0.855398

    Block 567 cell size :
        i : 0.23775 .. 0.23775
        j : 0.0757496 .. 0.0757496
        k : 0.735263 .. 0.735263

    Block 568 cell size :
        i : 0.228259 .. 0.228259
        j : 0.0749681 .. 0.0749681
        k : 0.622488 .. 0.622488

    Block 569 cell size :
        i : 0.106904 .. 0.106904
        j : 0.103512 .. 0.103512
        k : 0.738606 .. 0.738606

    Block 570 cell size :
        i : 0.23775 .. 0.23775
        j : 0.07425 .. 0.07425
        k : 0.74127 .. 0.74127

    Block 571 cell size :
        i : 0.23775 .. 0.23775
        j : 0.0750156 .. 0.0750156
        k : 0.857916 .. 0.857916

    Block 572 cell size :
        i : 0.23775 .. 0.23775
        j : 0.0757496 .. 0.0757496
        k : 0.737766 .. 0.737766

    Block 573 cell size :
        i : 0.228259 .. 0.228259
        j : 0.0749681 .. 0.0749681
        k : 0.624984 .. 0.624984

    Block 574 cell size :
        i : 0.106904 .. 0.106904
        j : 0.103512 .. 0.103512
        k : 0.741116 .. 0.741116

    Block 575 cell size :
        i : 0.23775 .. 0.23775
        j : 0.07425 .. 0.07425
        k : 0.74378 .. 0.74378

    Block 576 cell size :
        i : 0.23775 .. 0.23775
        j : 0.0750156 .. 0.0750156
        k : 0.860433 .. 0.860433

    Block 577 cell size :
        i : 0.23775 .. 0.23775
        j : 0.0757496 .. 0.0757496
        k : 0.740269 .. 0.740269

    Block 578 cell size :
        i : 0.228259 .. 0.228259
        j : 0.0749681 .. 0.0749681
        k : 0.627481 .. 0.627481

    Block 579 cell size :
        i : 0.106904 .. 0.106904
        j : 0.103512 .. 0.103512
        k : 0.743627 .. 0.743627

    Block 580 cell size :
        i : 0.23775 .. 0.23775
        j : 0.07425 .. 0.07425
        k : 0.746291 .. 0.746291

    Block 581 cell size :
        i : 0.23775 .. 0.23775
        j : 0.0750156 .. 0.0750156
        k : 0.86295 .. 0.86295

    Block 582 cell size :
        i : 0.23775 .. 0.23775
        j : 0.0757496 .. 0.0757496
        k : 0.742773 .. 0.742773

    Block 583 cell size :
        i : 0.228259 .. 0.228259
        j : 0.0749681 .. 0.0749681
        k : 0.629977 .. 0.629977

    Block 584 cell size :
        i : 0.106904 .. 0.106904
        j : 0.103512 .. 0.103512
        k : 0.746138 .. 0.746138

    Block 585 cell size :
        i : 0.23775 .. 0.23775
        j : 0.07425 .. 0.07425
        k : 0.748802 .. 0.748802

    Block 586 cell size :
        i : 0.23775 .. 0.23775
        j : 0.0750156 .. 0.0750156
        k : 0.865468 .. 0.865468

    Block 587 cell size :
        i : 0.23775 .. 0.23775
        j : 0.0757496 .. 0.0757496
        k : 0.745277 .. 0.745277

    Block 588 cell size :
        i : 0.228259 .. 0.228259
        j : 0.0749681 .. 0.0749681
        k : 0.632474 .. 0.632474

    Block 589 cell size :
        i : 0.106904 .. 0.106904
        j : 0.103512 .. 0.103512
        k : 0.748649 .. 0.748649

    Block 590 cell size :
        i : 0.23775 .. 0.23775
        j : 0.07425 .. 0.07425
        k : 0.751313 .. 0.751313

    Block 591 cell size :
        i : 0.23775 .. 0.23775
        j : 0.0750156 .. 0.0750156
        k : 0.867986 .. 0.867986

    Block 592 cell size :
        i : 0.23775 .. 0.23775
        j : 0.0757496 .. 0.0757496
        k : 0.747781 .. 0.747781

    Block 593 cell size :
        i : 0.228259 .. 0.228259
        j : 0.0749681 .. 0.0749681
        k : 0.634972 .. 0.634972

    Block 594 cell size :
        i : 0.106904 .. 0.106904
        j : 0.103512 .. 0.103512
        k : 0.75116 .. 0.75116

    Block 595 cell size :
        i : 0.23775 .. 0.23775
        j : 0.07425 .. 0.07425
        k : 0.753824 .. 0.753824

    Block 596 cell size :
        i : 0.23775 .. 0.23775
        j : 0.0750156 .. 0.0750156
        k : 0.870504 .. 0.870504

    Block 597 cell size :
        i : 0.23775 .. 0.23775
        j : 0.0757496 .. 0.0757496
        k : 0.750286 .. 0.750286

    Block 598 cell size :
        i : 0.228259 .. 0.228259
        j : 0.0749681 .. 0.0749681
        k : 0.63747 .. 0.63747

    Block 599 cell size :
        i : 0.106904 .. 0.106904
        j : 0.103512 .. 0.103512
        k : 0.753672 .. 0.753672

    Block 600 cell size :
        i : 0.23775 .. 0.23775
        j : 0.07425 .. 0.07425
        k : 0.756335 .. 0.756335

    Block 601 cell size :
        i : 0.23775 .. 0.23775
        j : 0.0750156 .. 0.0750156
        k : 0.873022 .. 0.873022

    Block 602 cell size :
        i : 0.23775 .. 0.23775
        j : 0.0757496 .. 0.0757496
        k : 0.752791 .. 0.752791

    Block 603 cell size :
        i : 0.228259 .. 0.228259
        j : 0.0749681 .. 0.0749681
        k : 0.639968 .. 0.639968

    Block 604 cell size :
        i : 0.106904 .. 0.106904
        j : 0.103512 .. 0.103512
        k : 0.756184 .. 0.756184

    Block 605 cell size :
        i : 0.23775 .. 0.23775
        j : 0.07425 .. 0.07425
        k : 0.758773 .. 0.758773

    Block 606 cell size :
        i : 0.23775 .. 0.23775
        j : 0.0750156 .. 0.0750156
        k : 0.883442 .. 0.883442

    Block 607 cell size :
        i : 0.23775 .. 0.23775
        j : 0.0757496 .. 0.0757496
        k : 0.754522 .. 0.754522

    Block 608 cell size :
        i : 0.228259 .. 0.228259
        j : 0.0749681 .. 0.0749681
        k : 0.634009 .. 0.634009

    Block 609 cell size :
        i : 0.106904 .. 0.106904
        j : 0.103512 .. 0.103512
        k : 0.758486 .. 0.758486

    Block 610 cell size :
        i : 0.23775 .. 0.23775
        j : 0.07425 .. 0.07425
        k : 0.760755 .. 0.760755

    Block 611 cell size :
        i : 0.23775 .. 0.23775
        j : 0.0750156 .. 0.0750156
        k : 0.884763 .. 0.884763

    Block 612 cell size :
        i : 0.23775 .. 0.23775
        j : 0.0757496 .. 0.0757496
        k : 0.756349 .. 0.756349

    Block 613 cell size :
        i : 0.228259 .. 0.228259
        j : 0.0749681 .. 0.0749681
        k : 0.63648 .. 0.63648

    Block 614 cell size :
        i : 0.106904 .. 0.106904
        j : 0.103512 .. 0.103512
        k : 0.760429 .. 0.760429

    Block 615 cell size :
        i : 0.23775 .. 0.23775
        j : 0.07425 .. 0.07425
        k : 0.762508 .. 0.762508

    Block 616 cell size :
        i : 0.23775 .. 0.23775
        j : 0.0750156 .. 0.0750156
        k : 0.878908 .. 0.878908

    Block 617 cell size :
        i : 0.23775 .. 0.23775
        j : 0.0757496 .. 0.0757496
        k : 0.75854 .. 0.75854

    Block 618 cell size :
        i : 0.228259 .. 0.228259
        j : 0.0749681 .. 0.0749681
        k : 0.646009 .. 0.646009

    Block 619 cell size :
        i : 0.106904 .. 0.106904
        j : 0.103512 .. 0.103512
        k : 0.762256 .. 0.762256

    Block 620 cell size :
        i : 0.23775 .. 0.23775
        j : 0.07425 .. 0.07425
        k : 0.764392 .. 0.764392

    Block 621 cell size :
        i : 0.23775 .. 0.23775
        j : 0.0750156 .. 0.0750156
[...]
        i : 0.23775 .. 0.23775
        j : 0.07425 .. 0.07425
        k : 0.346155 .. 0.346155

    Block 1421 cell size :
        i : 0.23775 .. 0.23775
        j : 0.0750156 .. 0.0750156
        k : 0.450983 .. 0.450983

    Block 1422 cell size :
        i : 0.23775 .. 0.23775
        j : 0.0757496 .. 0.0757496
        k : 0.314172 .. 0.314172

    Block 1423 cell size :
        i : 0.228259 .. 0.228259
        j : 0.0749681 .. 0.0749681
        k : 0.215207 .. 0.215207

    Block 1424 cell size :
        i : 0.106904 .. 0.106904
        j : 0.103512 .. 0.103512
        k : 0.336569 .. 0.336569

    Block 1425 cell size :
        i : 0.23775 .. 0.23775
        j : 0.07425 .. 0.07425
        k : 0.340236 .. 0.340236

    Block 1426 cell size :
        i : 0.23775 .. 0.23775
        j : 0.0750156 .. 0.0750156
        k : 0.444575 .. 0.444575

    Block 1427 cell size :
        i : 0.23775 .. 0.23775
        j : 0.0757496 .. 0.0757496
        k : 0.307244 .. 0.307244

    Block 1428 cell size :
        i : 0.228259 .. 0.228259
        j : 0.0749681 .. 0.0749681
        k : 0.208944 .. 0.208944

    Block 1429 cell size :
        i : 0.106904 .. 0.106904
        j : 0.103512 .. 0.103512
        k : 0.330216 .. 0.330216

    Block 1430 cell size :
        i : 0.23775 .. 0.23775
        j : 0.07425 .. 0.07425
        k : 0.335848 .. 0.335848

    Block 1431 cell size :
        i : 0.23775 .. 0.23775
        j : 0.0750156 .. 0.0750156
        k : 0.473578 .. 0.473578

    Block 1432 cell size :
        i : 0.23775 .. 0.23775
        j : 0.0757496 .. 0.0757496
        k : 0.30675 .. 0.30675

    Block 1433 cell size :
        i : 0.228259 .. 0.228259
        j : 0.0749681 .. 0.0749681
        k : 0.178725 .. 0.178725

    Block 1434 cell size :
        i : 0.106904 .. 0.106904
        j : 0.103512 .. 0.103512
        k : 0.325088 .. 0.325088

    Block 1435 cell size :
        i : 0.23775 .. 0.23775
        j : 0.07425 .. 0.07425
        k : 0.33118 .. 0.33118

    Block 1436 cell size :
        i : 0.23775 .. 0.23775
        j : 0.0750156 .. 0.0750156
        k : 0.440667 .. 0.440667

    Block 1437 cell size :
        i : 0.23775 .. 0.23775
        j : 0.0757496 .. 0.0757496
        k : 0.295383 .. 0.295383

    Block 1438 cell size :
        i : 0.228259 .. 0.228259
        j : 0.0749681 .. 0.0749681
        k : 0.192974 .. 0.192974

    Block 1439 cell size :
        i : 0.106904 .. 0.106904
        j : 0.103512 .. 0.103512
        k : 0.319812 .. 0.319812

    Block 1440 cell size :
        i : 0.23775 .. 0.23775
        j : 0.07425 .. 0.07425
        k : 0.32545 .. 0.32545

    Block 1441 cell size :
        i : 0.23775 .. 0.23775
        j : 0.0750156 .. 0.0750156
        k : 0.429408 .. 0.429408

    Block 1442 cell size :
        i : 0.23775 .. 0.23775
        j : 0.0757496 .. 0.0757496
        k : 0.28727 .. 0.28727

    Block 1443 cell size :
        i : 0.228259 .. 0.228259
        j : 0.0749681 .. 0.0749681
        k : 0.190258 .. 0.190258

    Block 1444 cell size :
        i : 0.106904 .. 0.106904
        j : 0.103512 .. 0.103512
        k : 0.313444 .. 0.313444

    Block 1445 cell size :
        i : 0.23775 .. 0.23775
        j : 0.07425 .. 0.07425
        k : 0.319582 .. 0.319582

    Block 1446 cell size :
        i : 0.23775 .. 0.23775
        j : 0.0750156 .. 0.0750156
        k : 0.422989 .. 0.422989

    Block 1447 cell size :
        i : 0.23775 .. 0.23775
        j : 0.0757496 .. 0.0757496
        k : 0.280067 .. 0.280067

    Block 1448 cell size :
        i : 0.228259 .. 0.228259
        j : 0.0749681 .. 0.0749681
        k : 0.183942 .. 0.183942

    Block 1449 cell size :
        i : 0.106904 .. 0.106904
        j : 0.103512 .. 0.103512
        k : 0.306953 .. 0.306953

    Block 1450 cell size :
        i : 0.23775 .. 0.23775
        j : 0.07425 .. 0.07425
        k : 0.313858 .. 0.313858

    Block 1451 cell size :
        i : 0.23775 .. 0.23775
        j : 0.0750156 .. 0.0750156
        k : 0.416689 .. 0.416689

    Block 1452 cell size :
        i : 0.23775 .. 0.23775
        j : 0.0757496 .. 0.0757496
        k : 0.272955 .. 0.272955

    Block 1453 cell size :
        i : 0.228259 .. 0.228259
        j : 0.0749681 .. 0.0749681
        k : 0.177789 .. 0.177789

    Block 1454 cell size :
        i : 0.106904 .. 0.106904
        j : 0.103512 .. 0.103512
        k : 0.300559 .. 0.300559

    Block 1455 cell size :
        i : 0.23775 .. 0.23775
        j : 0.07425 .. 0.07425
        k : 0.308288 .. 0.308288

    Block 1456 cell size :
        i : 0.23775 .. 0.23775
        j : 0.0750156 .. 0.0750156
        k : 0.410521 .. 0.410521

    Block 1457 cell size :
        i : 0.23775 .. 0.23775
        j : 0.0757496 .. 0.0757496
        k : 0.265946 .. 0.265946

    Block 1458 cell size :
        i : 0.228259 .. 0.228259
        j : 0.0749681 .. 0.0749681
        k : 0.171819 .. 0.171819

    Block 1459 cell size :
        i : 0.106904 .. 0.106904
        j : 0.103512 .. 0.103512
        k : 0.294271 .. 0.294271

    Block 1460 cell size :
        i : 0.23775 .. 0.23775
        j : 0.07425 .. 0.07425
        k : 0.302883 .. 0.302883

    Block 1461 cell size :
        i : 0.23775 .. 0.23775
        j : 0.0750156 .. 0.0750156
        k : 0.404495 .. 0.404495

    Block 1462 cell size :
        i : 0.23775 .. 0.23775
        j : 0.0757496 .. 0.0757496
        k : 0.259055 .. 0.259055

    Block 1463 cell size :
        i : 0.228259 .. 0.228259
        j : 0.0749681 .. 0.0749681
        k : 0.166056 .. 0.166056

    Block 1464 cell size :
        i : 0.106904 .. 0.106904
        j : 0.103512 .. 0.103512
        k : 0.288095 .. 0.288095

    Block 1465 cell size :
        i : 0.23775 .. 0.23775
        j : 0.07425 .. 0.07425
        k : 0.297657 .. 0.297657

    Block 1466 cell size :
        i : 0.23775 .. 0.23775
        j : 0.0750156 .. 0.0750156
        k : 0.398627 .. 0.398627

    Block 1467 cell size :
        i : 0.23775 .. 0.23775
        j : 0.0757496 .. 0.0757496
        k : 0.252298 .. 0.252298

    Block 1468 cell size :
        i : 0.228259 .. 0.228259
        j : 0.0749681 .. 0.0749681
        k : 0.160525 .. 0.160525

    Block 1469 cell size :
        i : 0.106904 .. 0.106904
        j : 0.103512 .. 0.103512
        k : 0.282041 .. 0.282041

    Block 1470 cell size :
        i : 0.23775 .. 0.23775
        j : 0.07425 .. 0.07425
        k : 0.292622 .. 0.292622

    Block 1471 cell size :
        i : 0.23775 .. 0.23775
        j : 0.0750156 .. 0.0750156
        k : 0.392931 .. 0.392931

    Block 1472 cell size :
        i : 0.23775 .. 0.23775
        j : 0.0757496 .. 0.0757496
        k : 0.245694 .. 0.245694

    Block 1473 cell size :
        i : 0.228259 .. 0.228259
        j : 0.0749681 .. 0.0749681
        k : 0.155258 .. 0.155258

    Block 1474 cell size :
        i : 0.106904 .. 0.106904
        j : 0.103512 .. 0.103512
        k : 0.276115 .. 0.276115

    Block 1475 cell size :
        i : 0.23775 .. 0.23775
        j : 0.07425 .. 0.07425
        k : 0.287792 .. 0.287792

    Block 1476 cell size :
        i : 0.23775 .. 0.23775
        j : 0.0750156 .. 0.0750156
        k : 0.387423 .. 0.387423

    Block 1477 cell size :
        i : 0.23775 .. 0.23775
        j : 0.0757496 .. 0.0757496
        k : 0.239268 .. 0.239268

    Block 1478 cell size :
        i : 0.228259 .. 0.228259
        j : 0.0749681 .. 0.0749681
        k : 0.150289 .. 0.150289

    Block 1479 cell size :
        i : 0.106904 .. 0.106904
        j : 0.103512 .. 0.103512
        k : 0.270327 .. 0.270327

    Block 1480 cell size :
        i : 0.23775 .. 0.23775
        j : 0.07425 .. 0.07425
        k : 0.283864 .. 0.283864

    Block 1481 cell size :
        i : 0.23775 .. 0.23775
        j : 0.0750156 .. 0.0750156
        k : 0.411498 .. 0.411498

    Block 1482 cell size :
        i : 0.23775 .. 0.23775
        j : 0.0757496 .. 0.0757496
        k : 0.243552 .. 0.243552

    Block 1483 cell size :
        i : 0.228259 .. 0.228259
        j : 0.0749681 .. 0.0749681
        k : 0.134558 .. 0.134558

    Block 1484 cell size :
        i : 0.106904 .. 0.106904
        j : 0.103512 .. 0.103512
        k : 0.265034 .. 0.265034

    Block 1485 cell size :
        i : 0.23775 .. 0.23775
        j : 0.07425 .. 0.07425
        k : 0.281209 .. 0.281209

    Block 1486 cell size :
        i : 0.23775 .. 0.23775
        j : 0.0750156 .. 0.0750156
        k : 0.402182 .. 0.402182

    Block 1487 cell size :
        i : 0.23775 .. 0.23775
        j : 0.0757496 .. 0.0757496
        k : 0.236609 .. 0.236609

    Block 1488 cell size :
        i : 0.228259 .. 0.228259
        j : 0.0749681 .. 0.0749681
        k : 0.133968 .. 0.133968

    Block 1489 cell size :
        i : 0.106904 .. 0.106904
        j : 0.103512 .. 0.103512
        k : 0.26123 .. 0.26123

    Block 1490 cell size :
        i : 0.23775 .. 0.23775
        j : 0.07425 .. 0.07425
        k : 0.278333 .. 0.278333

    Block 1491 cell size :
        i : 0.23775 .. 0.23775
        j : 0.0750156 .. 0.0750156
        k : 0.37878 .. 0.37878

    Block 1492 cell size :
        i : 0.23775 .. 0.23775
        j : 0.0757496 .. 0.0757496
        k : 0.22337 .. 0.22337

    Block 1493 cell size :
        i : 0.228259 .. 0.228259
        j : 0.0749681 .. 0.0749681
        k : 0.137415 .. 0.137415

    Block 1494 cell size :
        i : 0.106904 .. 0.106904
        j : 0.103512 .. 0.103512
        k : 0.25705 .. 0.25705

    Block 1495 cell size :
        i : 0.23775 .. 0.23775
        j : 0.07425 .. 0.07425
        k : 0.274288 .. 0.274288

    Block 1496 cell size :
        i : 0.23775 .. 0.23775
        j : 0.0750156 .. 0.0750156
        k : 0.374237 .. 0.374237

    Block 1497 cell size :
        i : 0.23775 .. 0.23775
        j : 0.0757496 .. 0.0757496
        k : 0.217739 .. 0.217739

    Block 1498 cell size :
        i : 0.228259 .. 0.228259
        j : 0.0749681 .. 0.0749681
        k : 0.133872 .. 0.133872

    Block 1499 cell size :
        i : 0.106904 .. 0.106904
        j : 0.103512 .. 0.103512
        k : 0.251633 .. 0.251633

    Block 1500 cell size :
        i : 0.23775 .. 0.23775
        j : 0.07425 .. 0.07425
        k : 0.270568 .. 0.270568

    Block 1501 cell size :
        i : 0.23775 .. 0.23775
        j : 0.0750156 .. 0.0750156
        k : 0.370061 .. 0.370061

    Block 1502 cell size :
        i : 0.23775 .. 0.23775
        j : 0.0757496 .. 0.0757496
        k : 0.212542 .. 0.212542

    Block 1503 cell size :
        i : 0.228259 .. 0.228259
        j : 0.0749681 .. 0.0749681
        k : 0.130963 .. 0.130963

    Block 1504 cell size :
        i : 0.106904 .. 0.106904
        j : 0.103512 .. 0.103512
        k : 0.246435 .. 0.246435

    Block 1505 cell size :
        i : 0.23775 .. 0.23775
        j : 0.07425 .. 0.07425
        k : 0.267193 .. 0.267193

    Block 1506 cell size :
        i : 0.23775 .. 0.23775
        j : 0.0750156 .. 0.0750156
        k : 0.366291 .. 0.366291

    Block 1507 cell size :
        i : 0.23775 .. 0.23775
        j : 0.0757496 .. 0.0757496
        k : 0.207846 .. 0.207846

    Block 1508 cell size :
        i : 0.228259 .. 0.228259
        j : 0.0749681 .. 0.0749681
        k : 0.128758 .. 0.128758

    Block 1509 cell size :
        i : 0.106904 .. 0.106904
        j : 0.103512 .. 0.103512
        k : 0.24147 .. 0.24147

    Block 1510 cell size :
        i : 0.23775 .. 0.23775
        j : 0.07425 .. 0.07425
        k : 0.264181 .. 0.264181

    Block 1511 cell size :
        i : 0.23775 .. 0.23775
        j : 0.0750156 .. 0.0750156
        k : 0.362963 .. 0.362963

    Block 1512 cell size :
        i : 0.23775 .. 0.23775
        j : 0.0757496 .. 0.0757496
        k : 0.203723 .. 0.203723

    Block 1513 cell size :
        i : 0.228259 .. 0.228259
        j : 0.0749681 .. 0.0749681
        k : 0.127324 .. 0.127324

    Block 1514 cell size :
        i : 0.106904 .. 0.106904
        j : 0.103512 .. 0.103512
        k : 0.23675 .. 0.23675

    Block 1515 cell size :
        i : 0.23775 .. 0.23775
        j : 0.07425 .. 0.07425
        k : 0.261549 .. 0.261549

    Block 1516 cell size :
        i : 0.23775 .. 0.23775
        j : 0.0750156 .. 0.0750156
        k : 0.360118 .. 0.360118

    Block 1517 cell size :
        i : 0.23775 .. 0.23775
        j : 0.0757496 .. 0.0757496
        k : 0.200252 .. 0.200252

    Block 1518 cell size :
        i : 0.228259 .. 0.228259
        j : 0.0749681 .. 0.0749681
        k : 0.126722 .. 0.126722

    Block 1519 cell size :
        i : 0.106904 .. 0.106904
        j : 0.103512 .. 0.103512
        k : 0.232288 .. 0.232288

    Block 1520 cell size :
        i : 0.23775 .. 0.23775
        j : 0.07425 .. 0.07425
        k : 0.25931 .. 0.25931

    Block 1521 cell size :
        i : 0.23775 .. 0.23775
        j : 0.0750156 .. 0.0750156
        k : 0.357795 .. 0.357795

    Block 1522 cell size :
        i : 0.23775 .. 0.23775
        j : 0.0757496 .. 0.0757496
        k : 0.197515 .. 0.197515

    Block 1523 cell size :
        i : 0.228259 .. 0.228259
        j : 0.0749681 .. 0.0749681
        k : 0.126997 .. 0.126997

    Block 1524 cell size :
        i : 0.106904 .. 0.106904
        j : 0.103512 .. 0.103512
        k : 0.228093 .. 0.228093

    Block 1525 cell size :
        i : 0.23775 .. 0.23775
        j : 0.07425 .. 0.07425
        k : 0.257474 .. 0.257474

    Block 1526 cell size :
        i : 0.23775 .. 0.23775
        j : 0.0750156 .. 0.0750156
        k : 0.356033 .. 0.356033

    Block 1527 cell size :
        i : 0.23775 .. 0.23775
        j : 0.0757496 .. 0.0757496
        k : 0.195591 .. 0.195591

    Block 1528 cell size :
        i : 0.228259 .. 0.228259
        j : 0.0749681 .. 0.0749681
        k : 0.128177 .. 0.128177

    Block 1529 cell size :
        i : 0.106904 .. 0.106904
        j : 0.103512 .. 0.103512
        k : 0.224176 .. 0.224176

    Block 1530 cell size :
        i : 0.23775 .. 0.23775
        j : 0.07425 .. 0.07425
        k : 0.255299 .. 0.255299

    Block 1531 cell size :
        i : 0.23775 .. 0.23775
        j : 0.0750156 .. 0.0750156
        k : 0.371563 .. 0.371563

    Block 1532 cell size :
        i : 0.23775 .. 0.23775
        j : 0.0757496 .. 0.0757496
        k : 0.207075 .. 0.207075

    Block 1533 cell size :
        i : 0.228259 .. 0.228259
        j : 0.0749681 .. 0.0749681
        k : 0.134275 .. 0.134275

    Block 1534 cell size :
        i : 0.106904 .. 0.106904
        j : 0.103512 .. 0.103512
        k : 0.219646 .. 0.219646

    Block 1535 cell size :
        i : 0.23775 .. 0.23775
        j : 0.07425 .. 0.07425
        k : 0.254222 .. 0.254222

    Block 1536 cell size :
        i : 0.23775 .. 0.23775
        j : 0.0750156 .. 0.0750156
        k : 0.396381 .. 0.396381

    Block 1537 cell size :
        i : 0.23775 .. 0.23775
        j : 0.0757496 .. 0.0757496
        k : 0.227191 .. 0.227191

    Block 1538 cell size :
        i : 0.228259 .. 0.228259
        j : 0.0749681 .. 0.0749681
        k : 0.146487 .. 0.146487

    Block 1539 cell size :
        i : 0.106904 .. 0.106904
        j : 0.103512 .. 0.103512
        k : 0.215912 .. 0.215912

    Block 1540 cell size :
        i : 0.23775 .. 0.23775
        j : 0.07425 .. 0.07425
        k : 0.257623 .. 0.257623

    Block 1541 cell size :
        i : 0.23775 .. 0.23775
        j : 0.0750156 .. 0.0750156
        k : 0.363947 .. 0.363947

    Block 1542 cell size :
        i : 0.23775 .. 0.23775
        j : 0.0757496 .. 0.0757496
        k : 0.19891 .. 0.19891

    Block 1543 cell size :
        i : 0.228259 .. 0.228259
        j : 0.0749681 .. 0.0749681
        k : 0.136386 .. 0.136386

    Block 1544 cell size :
        i : 0.106904 .. 0.106904
        j : 0.103512 .. 0.103512
        k : 0.218113 .. 0.218113

    Block 1545 cell size :
        i : 0.23775 .. 0.23775
        j : 0.07425 .. 0.07425
        k : 0.256972 .. 0.256972

    Block 1546 cell size :
        i : 0.23775 .. 0.23775
        j : 0.0750156 .. 0.0750156
        k : 0.364745 .. 0.364745

    Block 1547 cell size :
        i : 0.23775 .. 0.23775
        j : 0.0757496 .. 0.0757496
        k : 0.200755 .. 0.200755

    Block 1548 cell size :
        i : 0.228259 .. 0.228259
        j : 0.0749681 .. 0.0749681
        k : 0.140832 .. 0.140832

    Block 1549 cell size :
        i : 0.106904 .. 0.106904
        j : 0.103512 .. 0.103512
        k : 0.215103 .. 0.215103

    Block 1550 cell size :
        i : 0.23775 .. 0.23775
        j : 0.07425 .. 0.07425
        k : 0.256557 .. 0.256557

    Block 1551 cell size :
        i : 0.23775 .. 0.23775
        j : 0.0750156 .. 0.0750156
        k : 0.366097 .. 0.366097

    Block 1552 cell size :
        i : 0.23775 .. 0.23775
        j : 0.0757496 .. 0.0757496
        k : 0.203553 .. 0.203553

    Block 1553 cell size :
        i : 0.228259 .. 0.228259
        j : 0.0749681 .. 0.0749681
        k : 0.14579 .. 0.14579

    Block 1554 cell size :
        i : 0.106904 .. 0.106904
        j : 0.103512 .. 0.103512
        k : 0.212364 .. 0.212364

    Block 1555 cell size :
        i : 0.23775 .. 0.23775
        j : 0.07425 .. 0.07425
        k : 0.256268 .. 0.256268

    Block 1556 cell size :
        i : 0.23775 .. 0.23775
        j : 0.0750156 .. 0.0750156
        k : 0.367902 .. 0.367902

    Block 1557 cell size :
        i : 0.23775 .. 0.23775
        j : 0.0757496 .. 0.0757496
        k : 0.20718 .. 0.20718

    Block 1558 cell size :
        i : 0.228259 .. 0.228259
        j : 0.0749681 .. 0.0749681
        k : 0.151015 .. 0.151015

    Block 1559 cell size :
        i : 0.106904 .. 0.106904
        j : 0.103512 .. 0.103512
        k : 0.209866 .. 0.209866

    Block 1560 cell size :
        i : 0.23775 .. 0.23775
        j : 0.07425 .. 0.07425
        k : 0.25597 .. 0.25597

    Block 1561 cell size :
        i : 0.23775 .. 0.23775
        j : 0.0750156 .. 0.0750156
        k : 0.370015 .. 0.370015

    Block 1562 cell size :
        i : 0.23775 .. 0.23775
        j : 0.0757496 .. 0.0757496
        k : 0.211458 .. 0.211458

    Block 1563 cell size :
        i : 0.228259 .. 0.228259
        j : 0.0749681 .. 0.0749681
        k : 0.156215 .. 0.156215

    Block 1564 cell size :
        i : 0.106904 .. 0.106904
        j : 0.103512 .. 0.103512
        k : 0.207571 .. 0.207571

    Block 1565 cell size :
        i : 0.23775 .. 0.23775
        j : 0.07425 .. 0.07425
        k : 0.2555 .. 0.2555

    Block 1566 cell size :
        i : 0.23775 .. 0.23775
        j : 0.0750156 .. 0.0750156
        k : 0.372255 .. 0.372255

    Block 1567 cell size :
        i : 0.23775 .. 0.23775
        j : 0.0757496 .. 0.0757496
        k : 0.216154 .. 0.216154

    Block 1568 cell size :
        i : 0.228259 .. 0.228259
        j : 0.0749681 .. 0.0749681
        k : 0.161067 .. 0.161067

    Block 1569 cell size :
        i : 0.106904 .. 0.106904
        j : 0.103512 .. 0.103512
        k : 0.205435 .. 0.205435

    Block 1570 cell size :
        i : 0.23775 .. 0.23775
        j : 0.07425 .. 0.07425
        k : 0.254686 .. 0.254686

    Block 1571 cell size :
        i : 0.23775 .. 0.23775
        j : 0.0750156 .. 0.0750156
        k : 0.374415 .. 0.374415

    Block 1572 cell size :
        i : 0.23775 .. 0.23775
        j : 0.0757496 .. 0.0757496
        k : 0.221009 .. 0.221009

    Block 1573 cell size :
        i : 0.228259 .. 0.228259
        j : 0.0749681 .. 0.0749681
        k : 0.165236 .. 0.165236

    Block 1574 cell size :
        i : 0.106904 .. 0.106904
        j : 0.103512 .. 0.103512
        k : 0.203412 .. 0.203412


There are no merge patch pairs

Writing polyMesh with 0 cellZones
----------------
Mesh Information
----------------
  boundingBox: (-10.8725 -11.3189 -0.785201) (11.4817 11.3471 40.8121)
  nPoints: 164636
  nCells: 157500
  nFaces: 479300
  nInternalFaces: 465700
----------------
Patches
----------------
  patch 0 (start: 465700 size: 12600) name: walls
  patch 1 (start: 478300 size: 1000) name: defaultFaces

End

